! B3LYP def2-TZVP D3BJ TightSCF OptTS Numfreq
!  Normalprint Printbasis PrintMOs

%pal
nprocs 24
end

! CPCM
%
cpcm
epsilon 4.33
refrac 1.353
end

%scf
maxiter 3000
end

%geom
maxiter 5000
end

* xyz 1 1
  Co       -0.20494       -0.61503       -0.05935
   C       -0.72565        2.22758        0.18913
   C       -0.67364        1.08171        1.12432
   C        0.67911        0.73104        1.26676
   C        1.44981        1.49828        0.22281
   C        1.03792        0.63372       -0.98782
   C       -0.24828        0.83767       -1.53094
   C        0.64342        2.79576        0.08714
   C       -1.19300       -2.17155        0.97539
   C        0.23072       -2.36287        1.05672
   C        0.73192       -2.53311       -0.24970
   C       -0.36144       -2.37053       -1.14373
   C       -1.56527       -2.20181       -0.37903
   H       -1.63113        2.77960       -0.02541
   H       -1.48652        0.83206        1.78861
   H        1.12114        0.16141        2.06816
   H        2.51923        1.59096        0.37404
   H        1.81668        0.24106       -1.62774
   H       -0.43851        0.74111       -2.59365
   H        0.83214        3.37425       -0.81367
   H        0.80875        3.42857        0.97041
   H       -1.85050       -2.01062        1.81476
   H        0.80681       -2.38198        1.96773
   H        1.76164       -2.68725       -0.52666
   H       -0.30007       -2.38971       -2.22031
   H       -2.55958       -2.08342       -0.77697
   C       -1.20078        0.85309       -0.97098
   H       -2.01005        1.02875       -1.64857
   H       -1.17203        1.63370       -0.23973
   H       -1.34259       -0.08824       -0.48242
*