8
Coordinates from ORCA-job orca2 E -1160.340800203990
  Si     -3.208040      0.930140     -0.128390
  Si     -1.252750      0.882270      0.593350
  H      -4.169680      0.490180      0.913860
  H      -3.352840      0.198730     -1.413150
  Si      0.070590      0.529590     -0.985750
  Si      2.033100      0.608470     -0.285700
  H       2.179080      1.578340      0.830310
  H       2.982290      0.852450     -1.400770
8
Coordinates from ORCA-job orca2 E -1160.355704932897
  Si     -3.272199      0.873620     -0.130109
  Si     -1.283134      0.846473      0.580539
  H      -4.280867      0.562711      0.913708
  H      -3.464238      0.101608     -1.384159
  Si      0.096026      0.676693     -1.009337
  Si      2.088989      0.642786     -0.313789
  H       2.305030      1.528958      0.857684
  H       3.092142      0.837321     -1.390777
8
Coordinates from ORCA-job orca2 E -1160.368671207205
  Si     -3.398730      0.811324     -0.096915
  Si     -1.336321      0.769297      0.588059
  H      -4.479969      0.577900      0.890732
  H      -3.665981      0.127034     -1.385838
  Si      0.148951      0.691536     -0.981635
  Si      2.223638      0.710743     -0.340891
  H       2.510682      1.576277      0.828917
  H       3.279480      0.806059     -1.378668
8
Coordinates from ORCA-job orca2 E -1160.372908144590
  Si     -3.442112      0.770937     -0.109187
  Si     -1.360299      0.731393      0.577776
  H      -4.544898      0.651448      0.871826
  H      -3.747772      0.023666     -1.353171
  Si      0.164448      0.838968     -0.977218
  Si      2.262233      0.734352     -0.356353
  H       2.618951      1.519698      0.849766
  H       3.331197      0.799707     -1.379680
8
Coordinates from ORCA-job orca2 E -1160.374845005783
  Si     -3.451248      0.756384     -0.106098
  Si     -1.365694      0.567449      0.566465
  H      -4.556912      0.676691      0.874815
  H      -3.823749      0.079784     -1.371959
  Si      0.175898      0.860022     -0.959065
  Si      2.281625      0.767026     -0.335328
  H       2.670319      1.621492      0.813117
  H       3.351511      0.741322     -1.358188
8
Coordinates from ORCA-job orca2 E -1160.375716148701
  Si     -3.468684      0.720493     -0.145416
  Si     -1.381508      0.604580      0.564128
  H      -4.579623      0.760704      0.832521
  H      -3.865913     -0.090085     -1.322542
  Si      0.175280      1.044330     -0.924157
  Si      2.288286      0.769525     -0.346672
  H       2.774744      1.491760      0.855368
  H       3.339168      0.768862     -1.389470
8
Coordinates from ORCA-job orca2 E -1160.376226658374
  Si     -3.444216      0.726312     -0.153841
  Si     -1.368960      0.452250      0.524939
  H      -4.525736      0.793186      0.857914
  H      -3.918137     -0.032600     -1.338135
  Si      0.175645      1.014353     -0.924735
  Si      2.277984      0.784654     -0.314164
  H       2.762000      1.589163      0.836356
  H       3.323171      0.742853     -1.364575
8
Coordinates from ORCA-job orca2 E -1160.376327019011
  Si     -3.457153      0.720892     -0.151528
  Si     -1.374334      0.446556      0.530625
  H      -4.544433      0.773764      0.855907
  H      -3.942871     -0.011813     -1.348042
  Si      0.178233      1.011940     -0.917672
  Si      2.290605      0.793523     -0.308486
  H       2.797499      1.611161      0.822989
  H       3.334206      0.724147     -1.360034
8
Coordinates from ORCA-job orca2 E -1160.376409820126
  Si     -3.456629      0.719084     -0.156159
  Si     -1.375247      0.471084      0.544318
  H      -4.548182      0.753345      0.848945
  H      -3.936348     -0.015217     -1.354674
  Si      0.173281      1.034740     -0.907008
  Si      2.285793      0.792096     -0.303165
  H       2.820613      1.607376      0.817393
  H       3.318469      0.707663     -1.365890
8
Coordinates from ORCA-job orca2 E -1160.376489483734
  Si     -3.444014      0.718128     -0.169423
  Si     -1.367564      0.449916      0.545746
  H      -4.525591      0.781792      0.847607
  H      -3.962812     -0.019888     -1.350180
  Si      0.168752      1.002193     -0.917275
  Si      2.281389      0.792598     -0.293168
  H       2.823129      1.605134      0.826703
  H       3.308462      0.740298     -1.366251
8
Coordinates from ORCA-job orca2 E -1160.376499035141
  Si     -3.444840      0.716366     -0.167347
  Si     -1.369302      0.469016      0.556726
  H      -4.532029      0.757583      0.844084
  H      -3.946123     -0.014279     -1.359853
  Si      0.164930      1.025299     -0.906643
  Si      2.277427      0.793175     -0.291660
  H       2.835010      1.608583      0.818180
  H       3.296678      0.714427     -1.369726
8
Coordinates from ORCA-job orca2 E -1160.376505092092
  Si     -3.443950      0.714268     -0.166073
  Si     -1.369258      0.469814      0.561863
  H      -4.533125      0.754755      0.842359
  H      -3.940785     -0.010540     -1.363577
  Si      0.163023      1.027279     -0.903718
  Si      2.276561      0.794739     -0.291910
  H       2.836384      1.610879      0.816108
  H       3.292900      0.708975     -1.371291
8
Coordinates from ORCA-job orca2 E -1160.376513372846
  Si     -3.440246      0.710078     -0.164441
  Si     -1.368368      0.463684      0.572533
  H      -4.533256      0.757030      0.838307
  H      -3.933825     -0.002869     -1.369732
  Si      0.158910      1.022313     -0.899281
  Si      2.275324      0.797794     -0.292201
  H       2.836620      1.616056      0.813233
  H       3.286591      0.706083     -1.374658
8
Coordinates from ORCA-job orca2 E -1160.376518789378
  Si     -3.436976      0.707809     -0.163237
  Si     -1.368110      0.457758      0.582032
  H      -4.534418      0.758817      0.834191
  H      -3.928222      0.003670     -1.374424
  Si      0.155644      1.016851     -0.894571
  Si      2.274568      0.799069     -0.292245
  H       2.837113      1.620928      0.809760
  H       3.282151      0.705268     -1.377746
8
Coordinates from ORCA-job orca2 E -1160.376542938712
  Si     -3.422352      0.699759     -0.157318
  Si     -1.368978      0.435050      0.628404
  H      -4.543269      0.759217      0.812903
  H      -3.897278      0.035311     -1.396589
  Si      0.140404      0.996716     -0.867820
  Si      2.270566      0.802141     -0.292076
  H       2.842296      1.644714      0.789060
  H       3.260360      0.697263     -1.392804
8
Coordinates from ORCA-job orca2 E -1160.376934711011
  Si     -3.326262      0.656592     -0.124998
  Si     -1.384600      0.311388      0.896637
  H      -4.573250      0.740875      0.673842
  H      -3.665816      0.234421     -1.504756
  Si      0.044051      0.896850     -0.699804
  Si      2.228297      0.814521     -0.292947
  H       2.848619      1.779318      0.649155
  H       3.110710      0.636204     -1.473369
8
Coordinates from ORCA-job orca2 E -1160.379175737218
  Si     -3.190584      0.624371     -0.096740
  Si     -1.414230      0.079391      1.131472
  H      -4.527838      0.801866      0.524549
  H      -3.383240      0.461738     -1.557237
  Si     -0.056575      0.714921     -0.537663
  Si      2.157810      0.827302     -0.292242
  H       2.741137      1.954547      0.478290
  H       2.955269      0.606034     -1.526668
8
Coordinates from ORCA-job orca2 E -1160.384118061834
  Si     -3.016515      0.598597     -0.073540
  Si     -1.460575     -0.190919      1.318000
  H      -4.394799      0.927246      0.382151
  H      -3.032622      0.666877     -1.554768
  Si     -0.162352      0.511018     -0.394036
  Si      2.046234      0.843377     -0.293629
  H       2.518428      2.121675      0.299961
  H       2.783952      0.592299     -1.560379
8
Coordinates from ORCA-job orca2 E -1160.390057907416
  Si     -2.855481      0.581089     -0.057354
  Si     -1.521474     -0.479685      1.393873
  H      -4.193618      1.126826      0.317133
  H      -2.730871      0.810669     -1.519382
  Si     -0.235947      0.289847     -0.309772
  Si      1.925853      0.879610     -0.284300
  H       2.207716      2.286848      0.109994
  H       2.685572      0.574965     -1.526432
8
Coordinates from ORCA-job orca2 E -1160.394395364204
  Si     -2.703410      0.569348     -0.047704
  Si     -1.598581     -0.739523      1.405337
  H      -3.940019      1.335645      0.306811
  H      -2.455500      0.910139     -1.475204
  Si     -0.293583      0.093190     -0.255385
  Si      1.790788      0.927697     -0.267064
  H       1.857888      2.406987     -0.097817
  H       2.624167      0.566687     -1.445213
8
Coordinates from ORCA-job orca2 E -1160.396636063105
  Si     -2.764562      0.585987     -0.058000
  Si     -1.615485     -0.834168      1.278917
  H      -3.941572      1.379645      0.427631
  H      -2.552766      1.028535     -1.473475
  Si     -0.189742     -0.027940     -0.221769
  Si      1.821331      0.966344     -0.225357
  H       1.726920      2.451151     -0.353115
  H       2.797626      0.520616     -1.251071
8
Coordinates from ORCA-job orca2 E -1160.398536962776
  Si     -2.607628      0.568412     -0.070663
  Si     -1.694969     -1.033426      1.240698
  H      -3.619642      1.539907      0.461918
  H      -2.293328      1.064746     -1.449492
  Si     -0.269206     -0.116487     -0.182009
  Si      1.653209      1.029704     -0.197279
  H       1.414702      2.464052     -0.540611
  H       2.698611      0.553260     -1.138802
8
Coordinates from ORCA-job orca2 E -1160.400165954727
  Si     -2.654420      0.548549     -0.100949
  Si     -1.659607     -0.935441      1.280794
  H      -3.643557      1.531557      0.433249
  H      -2.450488      0.936347     -1.529344
  Si     -0.254415     -0.036699     -0.164627
  Si      1.727249      0.990527     -0.192339
  H       1.572773      2.468852     -0.319088
  H       2.644215      0.566478     -1.283937
8
Coordinates from ORCA-job orca2 E -1160.400787149455
  Si     -2.642783      0.544328     -0.114742
  Si     -1.667443     -0.959830      1.265575
  H      -3.568304      1.567053      0.450150
  H      -2.493545      0.914802     -1.552028
  Si     -0.250487     -0.045975     -0.149242
  Si      1.715648      1.004744     -0.184920
  H       1.549380      2.479388     -0.324814
  H       2.639285      0.565660     -1.266219
8
Coordinates from ORCA-job orca2 E -1160.401885452489
  Si     -2.606681      0.545392     -0.139492
  Si     -1.686840     -1.010218      1.236569
  H      -3.398203      1.638931      0.476940
  H      -2.603274      0.868122     -1.587885
  Si     -0.240746     -0.074943     -0.132276
  Si      1.679019      1.039438     -0.189781
  H       1.490839      2.506629     -0.327639
  H       2.647636      0.556819     -1.212676
8
Coordinates from ORCA-job orca2 E -1160.402503905120
  Si     -2.579206      0.555512     -0.148788
  Si     -1.698509     -1.022786      1.233845
  H      -3.321177      1.674021      0.479782
  H      -2.661146      0.833255     -1.600515
  Si     -0.234111     -0.098154     -0.136245
  Si      1.654200      1.051622     -0.212288
  H       1.463475      2.518477     -0.299352
  H       2.658224      0.558225     -1.192680
8
Coordinates from ORCA-job orca2 E -1160.403350383372
  Si     -2.529434      0.579208     -0.158572
  Si     -1.720582     -1.026871      1.245578
  H      -3.231845      1.721636      0.475286
  H      -2.711464      0.779099     -1.613141
  Si     -0.226323     -0.143638     -0.146732
  Si      1.609910      1.058474     -0.260578
  H       1.423681      2.523579     -0.236234
  H       2.667806      0.578683     -1.181847
8
Coordinates from ORCA-job orca2 E -1160.404039998291
  Si     -2.471288      0.603413     -0.171876
  Si     -1.755145     -1.030929      1.263941
  H      -3.126436      1.776669      0.464110
  H      -2.729578      0.726506     -1.626069
  Si     -0.218555     -0.204012     -0.137871
  Si      1.554957      1.058243     -0.308763
  H       1.370161      2.514672     -0.168342
  H       2.657634      0.625608     -1.191371
8
Coordinates from ORCA-job orca2 E -1160.404754667821
  Si     -2.419441      0.624864     -0.185915
  Si     -1.795026     -1.038292      1.279172
  H      -3.030805      1.824352      0.453166
  H      -2.725711      0.686969     -1.638601
  Si     -0.209532     -0.265143     -0.108111
  Si      1.500639      1.053599     -0.347857
  H       1.325219      2.500000     -0.117106
  H       2.636407      0.683821     -1.210989
8
Coordinates from ORCA-job orca2 E -1160.405553563839
  Si     -2.365645      0.636720     -0.201409
  Si     -1.842299     -1.055829      1.293232
  H      -2.917311      1.866702      0.437955
  H      -2.692395      0.657744     -1.653360
  Si     -0.210974     -0.320146     -0.056783
  Si      1.437740      1.048234     -0.373115
  H       1.285184      2.487732     -0.077744
  H       2.587451      0.749012     -1.245015
8
Coordinates from ORCA-job orca2 E -1160.406315321231
  Si     -2.338017      0.652401     -0.213208
  Si     -1.875583     -1.067396      1.295758
  H      -2.862097      1.893686      0.425268
  H      -2.664768      0.639826     -1.664996
  Si     -0.199843     -0.365973      0.003508
  Si      1.396527      1.037924     -0.388938
  H       1.276843      2.474148     -0.051297
  H       2.548689      0.805555     -1.282336
8
Coordinates from ORCA-job orca2 E -1160.407241345889
  Si     -2.288925      0.656022     -0.229431
  Si     -1.911752     -1.083523      1.299457
  H      -2.763880      1.916529      0.403713
  H      -2.631514      0.624758     -1.674564
  Si     -0.198628     -0.397180      0.063856
  Si      1.341054      1.038332     -0.401582
  H       1.251395      2.465579     -0.017313
  H       2.484000      0.849653     -1.320376
8
Coordinates from ORCA-job orca2 E -1160.408107900359
  Si     -2.241663      0.655053     -0.246238
  Si     -1.946471     -1.104022      1.297875
  H      -2.664919      1.930429      0.384681
  H      -2.598353      0.614636     -1.683643
  Si     -0.202347     -0.415417      0.128037
  Si      1.284743      1.041598     -0.410023
  H       1.234714      2.462026      0.007119
  H       2.416046      0.885868     -1.354048
8
Coordinates from ORCA-job orca2 E -1160.408596118465
  Si     -2.203518      0.635708     -0.264364
  Si     -1.965257     -1.114687      1.312750
  H      -2.526894      1.947645      0.318259
  H      -2.532409      0.600024     -1.694183
  Si     -0.226522     -0.434324      0.193505
  Si      1.225216      1.046301     -0.385436
  H       1.235764      2.451776      0.083766
  H       2.275370      0.937726     -1.440536
8
Coordinates from ORCA-job orca2 E -1160.409852886046
  Si     -2.223204      0.657841     -0.259763
  Si     -1.897549     -1.054153      1.319339
  H      -2.646162      1.981466      0.274666
  H      -2.614098      0.645312     -1.688931
  Si     -0.103832     -0.522151      0.170026
  Si      1.288385      1.048715     -0.388302
  H       1.167462      2.424834      0.141539
  H       2.310750      0.888306     -1.444813
8
Coordinates from ORCA-job orca2 E -1160.414297024302
  Si     -2.139140      0.659659     -0.274472
  Si     -1.944974     -1.081211      1.314405
  H      -2.508476      1.994440      0.271464
  H      -2.562160      0.627847     -1.694333
  Si     -0.118279     -0.538865      0.225488
  Si      1.194392      1.055796     -0.408293
  H       1.130749      2.425640      0.145672
  H       2.229639      0.926865     -1.456171
8
Coordinates from ORCA-job orca2 E -1160.416703799604
  Si     -1.868138      0.643083     -0.268614
  Si     -2.027047     -1.051126      1.369894
  H      -2.074992      2.037443      0.209885
  H      -2.279486      0.602180     -1.691074
  Si     -0.194363     -0.656697      0.225992
  Si      0.927901      1.061891     -0.415963
  H       0.875464      2.399446      0.206975
  H       1.922412      1.033950     -1.513334
8
Coordinates from ORCA-job orca2 E -1160.425249126078
  Si     -1.903432      0.668378     -0.292618
  Si     -2.023801     -1.075249      1.315267
  H      -2.194975      2.028537      0.244792
  H      -2.360116      0.620088     -1.703939
  Si     -0.123929     -0.638173      0.312576
  Si      0.959692      1.057330     -0.426205
  H       0.960673      2.404670      0.179444
  H       1.967638      1.004590     -1.505558
8
Coordinates from ORCA-job orca2 E -1160.434148580533
  Si     -1.797643      0.680200     -0.323991
  Si     -2.029389     -1.038046      1.304991
  H      -2.088838      2.043365      0.209313
  H      -2.293199      0.619913     -1.722100
  Si     -0.077743     -0.704727      0.377048
  Si      0.855795      1.052486     -0.409857
  H       0.915184      2.379739      0.236230
  H       1.797584      1.037240     -1.547874
8
Coordinates from ORCA-job orca2 E -1160.439750035052
  Si     -1.641070      0.693726     -0.379837
  Si     -1.977385     -0.914756      1.346836
  H      -1.862076      2.091997      0.086423
  H      -2.197550      0.607656     -1.751351
  Si     -0.010722     -0.865782      0.394592
  Si      0.693283      1.034243     -0.360926
  H       0.780108      2.307269      0.388150
  H       1.497161      1.115817     -1.600126
8
Coordinates from ORCA-job orca2 E -1160.436903568922
  Si     -1.768269      0.654127     -0.472801
  Si     -1.960839     -0.831927      1.389137
  H      -2.008573      2.066150     -0.080459
  H      -2.437486      0.448466     -1.775133
  Si     -0.004961     -0.827645      0.348339
  Si      0.801893      1.096684     -0.287365
  H       1.193390      2.213304      0.601923
  H       1.466596      1.251011     -1.599882
8
Coordinates from ORCA-job orca2 E -1160.443880041922
  Si     -1.733171      0.701833     -0.391818
  Si     -2.055270     -0.980719      1.297647
  H      -2.139949      2.039227      0.133156
  H      -2.273218      0.585561     -1.772992
  Si      0.002257     -0.770476      0.466972
  Si      0.780814      1.082233     -0.386969
  H       1.074920      2.317238      0.375308
  H       1.625367      1.095274     -1.597544
8
Coordinates from ORCA-job orca2 E -1160.446305143536
  Si     -1.649672      0.712052     -0.406859
  Si     -2.074324     -1.015175      1.234347
  H      -2.072903      2.012588      0.179278
  H      -2.192563      0.628108     -1.785054
  Si      0.010423     -0.752829      0.573282
  Si      0.693288      1.088648     -0.387093
  H       1.049621      2.333578      0.331745
  H       1.517881      1.063200     -1.615887
8
Coordinates from ORCA-job orca2 E -1160.447535758209
  Si     -1.692045      0.735392     -0.401717
  Si     -2.090857     -1.074167      1.174300
  H      -2.179287      1.996519      0.207825
  H      -2.198670      0.603607     -1.788011
  Si     -0.000260     -0.677489      0.649352
  Si      0.719956      1.115711     -0.400471
  H       1.196765      2.318193      0.324424
  H       1.526148      1.052404     -1.641942
8
Coordinates from ORCA-job orca2 E -1160.446659820494
  Si     -1.696745      0.800088     -0.355637
  Si     -2.054152     -1.055830      1.174618
  H      -2.258078      2.037019      0.227001
  H      -2.081005      0.620764     -1.775014
  Si      0.023872     -0.729642      0.660284
  Si      0.713892      1.104416     -0.467601
  H       1.083240      2.287229      0.352906
  H       1.550727      1.006126     -1.692797
8
Coordinates from ORCA-job orca2 E -1160.449100186669
  Si     -1.662246      0.772865     -0.397075
  Si     -2.074894     -1.078612      1.135052
  H      -2.237436      1.990388      0.221197
  H      -2.157943      0.613950     -1.783693
  Si      0.015279     -0.674392      0.703287
  Si      0.700029      1.142673     -0.430409
  H       1.200768      2.299644      0.349077
  H       1.498191      1.003654     -1.673676
8
Coordinates from ORCA-job orca2 E -1160.449387665402
  Si     -1.659247      0.766944     -0.392030
  Si     -2.086353     -1.090220      1.131295
  H      -2.230638      1.989892      0.221180
  H      -2.153612      0.604259     -1.778693
  Si     -0.004082     -0.668089      0.701987
  Si      0.707345      1.147105     -0.424674
  H       1.216427      2.308388      0.341726
  H       1.491911      1.011890     -1.677032
8
Coordinates from ORCA-job orca2 E -1160.449598384970
  Si     -1.645939      0.777284     -0.382531
  Si     -2.096680     -1.105120      1.106360
  H      -2.263318      1.981652      0.228312
  H      -2.147165      0.596355     -1.765940
  Si     -0.015081     -0.652444      0.716098
  Si      0.714401      1.162518     -0.430303
  H       1.247743      2.311403      0.335412
  H       1.487788      0.998522     -1.683647
8
Coordinates from ORCA-job orca2 E -1160.449647715077
  Si     -1.638101      0.777592     -0.378866
  Si     -2.098682     -1.101918      1.110031
  H      -2.246662      1.992545      0.219101
  H      -2.140170      0.589190     -1.760894
  Si     -0.015816     -0.666795      0.709417
  Si      0.715003      1.162140     -0.429082
  H       1.229827      2.314612      0.343567
  H       1.476349      1.002804     -1.689515
8
Coordinates from ORCA-job orca2 E -1160.449676979284
  Si     -1.640142      0.784716     -0.376888
  Si     -2.097588     -1.112983      1.095190
  H      -2.260674      1.990012      0.225649
  H      -2.143066      0.592890     -1.757745
  Si     -0.016423     -0.658465      0.722213
  Si      0.720632      1.164924     -0.431638
  H       1.237723      2.319121      0.337258
  H       1.481289      0.989954     -1.690278
8
Coordinates from ORCA-job orca2 E -1160.448316705072
  Si     -1.637447      0.806652     -0.333939
  Si     -2.100173     -1.190807      1.006807
  H      -2.293137      1.967285      0.315174
  H      -2.073703      0.691058     -1.744770
  Si     -0.033917     -0.605961      0.797971
  Si      0.723534      1.130544     -0.455595
  H       1.161183      2.377968      0.211028
  H       1.535409      0.893431     -1.672916
8
Coordinates from ORCA-job orca2 E -1160.449522273557
  Si     -1.628802      0.794743     -0.375214
  Si     -2.094968     -1.175660      1.014197
  H      -2.278762      1.967757      0.256927
  H      -2.115199      0.631493     -1.765729
  Si     -0.022792     -0.600393      0.817016
  Si      0.726921      1.166806     -0.412518
  H       1.277612      2.347258      0.290766
  H       1.417740      0.938166     -1.701685
8
Coordinates from ORCA-job orca2 E -1160.448821010131
  Si     -1.649636      0.818659     -0.341178
  Si     -2.091078     -1.121577      1.094231
  H      -2.385806      1.987858      0.195266
  H      -2.025141      0.579201     -1.754665
  Si     -0.012375     -0.653273      0.729572
  Si      0.726479      1.168260     -0.410458
  H       1.341957      2.285147      0.341998
  H       1.377350      1.005895     -1.731005
8
Coordinates from ORCA-job orca2 E -1160.449300842132
  Si     -1.644189      0.787491     -0.377188
  Si     -2.092508     -1.119955      1.095035
  H      -2.226878      2.019370      0.214083
  H      -2.219863      0.554774     -1.725274
  Si     -0.016061     -0.670209      0.680321
  Si      0.729066      1.172288     -0.442340
  H       1.204970      2.333110      0.340521
  H       1.547212      0.993301     -1.661397
8
Coordinates from ORCA-job orca2 E -1160.449537431418
  Si     -1.622882      0.788793     -0.374965
  Si     -2.093494     -1.166806      1.032366
  H      -2.238811      1.979947      0.258298
  H      -2.127387      0.630512     -1.759939
  Si     -0.013537     -0.619509      0.790855
  Si      0.715047      1.156042     -0.419046
  H       1.218102      2.356752      0.286157
  H       1.444713      0.944440     -1.689967
8
Coordinates from ORCA-job orca2 E -1160.449717299872
  Si     -1.638870      0.810927     -0.353900
  Si     -2.089753     -1.190835      1.004706
  H      -2.307823      1.984455      0.257256
  H      -2.118757      0.613152     -1.742872
  Si     -0.022460     -0.600046      0.796360
  Si      0.730385      1.171097     -0.423661
  H       1.279502      2.351546      0.280298
  H       1.449526      0.929873     -1.694427
8
Coordinates from ORCA-job orca2 E -1160.449553661648
  Si     -1.643302      0.795097     -0.367023
  Si     -2.088369     -1.112681      1.106512
  H      -2.287752      2.005446      0.199723
  H      -2.118657      0.566612     -1.752698
  Si     -0.005171     -0.668406      0.704237
  Si      0.724614      1.163266     -0.413069
  H       1.266774      2.310085      0.350114
  H       1.433612      1.010751     -1.704036
8
Coordinates from ORCA-job orca2 E -1160.449782906403
  Si     -1.633129      0.798621     -0.364545
  Si     -2.092449     -1.158056      1.047067
  H      -2.269930      1.996380      0.235395
  H      -2.129839      0.595179     -1.746837
  Si     -0.012506     -0.632171      0.758142
  Si      0.720506      1.167043     -0.420505
  H       1.251760      2.340456      0.308662
  H       1.447337      0.962717     -1.693620
8
Coordinates from ORCA-job orca2 E -1160.449791187648
  Si     -1.636071      0.801991     -0.360386
  Si     -2.092101     -1.171032      1.031499
  H      -2.280076      1.994643      0.241944
  H      -2.126391      0.600587     -1.745238
  Si     -0.015270     -0.621439      0.771035
  Si      0.725130      1.167203     -0.418997
  H       1.260771      2.346197      0.297794
  H       1.445757      0.952020     -1.693891
8
Coordinates from ORCA-job orca2 E -1160.449794289848
  Si     -1.636273      0.803938     -0.359172
  Si     -2.091228     -1.173655      1.027294
  H      -2.283898      1.994907      0.241922
  H      -2.124901      0.599853     -1.744172
  Si     -0.014845     -0.618514      0.773505
  Si      0.724001      1.168932     -0.419078
  H       1.265632      2.345468      0.297443
  H       1.443262      0.949242     -1.693982
8
Coordinates from ORCA-job orca2 E -1160.449798138418
  Si     -1.636432      0.806012     -0.356133
  Si     -2.090427     -1.180143      1.018213
  H      -2.285861      1.997574      0.241438
  H      -2.121493      0.599151     -1.741966
  Si     -0.014403     -0.614042      0.778756
  Si      0.723093      1.170338     -0.417146
  H       1.270735      2.346943      0.294814
  H       1.436538      0.944336     -1.694215
8
Coordinates from ORCA-job orca2 E -1160.449798762525
  Si     -1.636974      0.807257     -0.353491
  Si     -2.089738     -1.186358      1.009774
  H      -2.286640      1.999514      0.242369
  H      -2.119445      0.600220     -1.740230
  Si     -0.014503     -0.609866      0.784196
  Si      0.723013      1.170551     -0.415716
  H       1.273039      2.349414      0.290701
  H       1.432997      0.939439     -1.693843
8
Coordinates from ORCA-job orca2 E -1160.449798835821
  Si     -1.636962      0.807212     -0.352786
  Si     -2.089599     -1.187735      1.007705
  H      -2.286029      2.000137      0.242512
  H      -2.118905      0.600780     -1.739836
  Si     -0.014498     -0.609144      0.785790
  Si      0.722862      1.170255     -0.415335
  H       1.272756      2.350129      0.289488
  H       1.432125      0.938535     -1.693778
8
Coordinates from ORCA-job orca2 E -1160.449798738189
  Si     -1.637065      0.807253     -0.352089
  Si     -2.089406     -1.188977      1.005629
  H      -2.286184      2.000459      0.242705
  H      -2.118533      0.601275     -1.739423
  Si     -0.014631     -0.608256      0.787596
  Si      0.722813      1.170095     -0.415201
  H       1.273154      2.350506      0.288367
  H       1.431601      0.937816     -1.693823
