! TPSSh D3BJ TightSCF OPT FREQ cc-pVQZ
!  Largeprint Printbasis PrintMOs

%basis
newgto Bi "cc-pVQZ-PP" end 
end

%pal
nprocs 20
end

%scf
maxiter 500
end

%geom
maxiter 500
end


* xyz -10 3
  Bi       -3.78598        0.52948       -1.93206
  Bi       -6.75169       -0.87200        1.44700
  Bi       -0.91688       -0.89562       -1.89742
  Bi       -6.65757       -4.61294        1.10014
  Bi       -0.34716       -4.07730        1.52837
  Bi       -3.37846       -6.25883        1.14000
  Si       -5.46648        0.53865       -0.17538
  Si       -4.57935       -1.26360       -0.02179
  Si       -3.09586       -1.65431       -1.23620
  Si       -1.93464        0.70307        0.00990
  Si       -1.92777       -2.58697       -0.01571
  Si        0.05421       -2.22145       -0.09587
  Si       -1.45402       -5.29166       -0.61848
  Si       -2.57104       -4.02746        1.52106
  Si       -4.96290       -5.37802       -1.00730
  Si       -4.27077       -3.92809        1.90162
  Si       -7.00547       -2.51350       -0.69331
   H       -4.28977       -2.49718       -0.64570
   H       -3.62663       -1.16495        1.18388
   H       -3.84225       -3.12925       -1.17115
   H       -3.06184       -1.53632        0.51483
   H       -3.07796       -3.10506       -0.63297
   H       -2.43389       -1.76751        1.19053
   H       -3.22097       -3.62171        0.14582
   H       -2.75099       -2.57497        1.48795
  Si       -5.37020       -2.61905        1.48593
   H       -4.09328       -1.90008        1.47269
   H       -4.62935       -2.91672        0.13066
   H       -3.52600       -2.43271        2.01086
   H       -4.13691       -3.68644        0.38726
  Fe       -3.86783       -3.16255       -0.29015
  Fe       -3.25533       -1.91005        1.32527
   O       -3.69597        0.97962        0.41717
   O       -6.73671       -0.71654       -0.86731
   O       -0.67170       -0.53819        0.46813
   O       -0.16781       -4.00359       -0.76408
   O       -3.15997       -5.24063       -1.26037
   O       -5.93035       -3.85678       -1.29636
*