! BP86 D3BJ TightSCF OPT FREQ def2-TZVP
!  Largeprint Printbasis PrintMOs

%pal
nprocs 24
end

%scf
maxiter 300
end

%geom
maxiter 500
end

* xyz 0 2
   C       -1.36157        2.26393        0.00000
   C       -2.86044        0.99324        0.00000
   C        0.20946        0.87140        0.00000
   C       -2.24427       -0.99159       -0.00000
   H       -3.45358        1.16592       -0.87365
   H       -3.76762        1.05657        0.36152
   C       -0.28340       -1.13834        0.00000
   H        0.79917        1.05545        0.87365
   H        0.70759        1.02686       -0.93413
   H        0.13061       -1.70880       -0.80503
   C       -2.24015        3.25040        2.00308
   H       -1.04450        3.01274       -0.69546
   C       -1.85121        0.47872        2.25346
   H       -2.37898        4.30011        2.15713
   H       -2.44789        3.16496        3.04924
   H       -0.82357        0.61421        2.42958
   H       -3.04265        0.67167        2.54904
   H       -2.63589       -1.98377       -0.08427
*

