! PBE0 ZORA ZORA-def2-TZVP SARC/J D3BJ TightSCF OPT FREQ
!  Normalprint Printbasis PrintMOs

%basis 
NewGTO Ir "SARC-ZORA-TZVP" end
end

%pal
nprocs 24
end

%scf
maxiter 300
end

%geom
maxiter 500
end

* xyz 0 4
   C       -0.13723        1.88444        1.83482
   C       -1.97520        0.73309        1.84157
   C        1.23967        0.48075        0.92286
   C       -1.53814       -1.37916        1.58635
   C        0.59440       -1.56486        1.23918
  Ir       -0.03825       -0.12595        2.85330
   H       -0.26258        2.83332        1.27296
   H       -2.22627        0.92872        0.77866
   H       -1.85174       -1.49024        0.53107
   H        2.29862        0.67480        1.18089
   H        0.87991       -2.35606        0.51676
   C        1.83384        0.06617        4.12945
   C       -0.30222        1.18557        4.72287
   C        0.80170       -1.83615        4.08334
   C       -1.32942       -0.71367        4.62289
   C       -0.17868       -1.56965        5.28791
   C        1.06175        0.72816        5.31896
   C        0.61497       -0.53338        6.17770
   H        1.61779        1.47401        5.92377
   H       -0.53781       -2.49368        5.78458
   H       -0.02899       -0.20620        7.02359
   H        1.50971       -1.03015        6.61297
   C        0.44623        2.95269        3.13811
   H       -0.11070        3.47240        2.38669
   H        1.48864        3.16229        3.01835
   H        0.12639        3.27598        4.10665
*
