! TPSSh def2-TZVP D3BJ TightSCF OPT FREQ
!  Normalprint Printbasis PrintMOs

%pal
nprocs 24
end

! CPCM
%
cpcm
epsilon 4.33
refrac 1.353
end

%scf
maxiter 300
end

%geom
maxiter 500
end

* xyz 1 2
  Rh       -4.94378        4.87713        0.66834
   C       -5.01341        5.93519        3.34179
   C       -3.90938        5.08358        2.69472
   C       -4.12666        3.72801        2.45849
   C       -5.34957        2.99820        2.97562
   C       -6.43357        4.03207        3.31747
   C       -6.74576        4.93196        2.10979
   C       -6.02086        6.11883        2.19233
   C       -5.82538        5.05838        4.31063
   C       -4.55631        5.13449       -1.54168
   C       -3.79746        4.01876       -1.06301
   C       -4.72951        2.98081       -0.68366
   C       -6.03694        3.47686       -0.85582
   C       -5.93828        4.83460       -1.35098
   H       -4.15324        6.05828       -1.93287
   H       -2.71961        3.93321       -1.06603
   H       -4.46069        2.00727       -0.29622
   H       -6.95652        2.95168       -0.63638
   H       -6.76968        5.47949       -1.60109
   H       -4.62026        6.86308        3.75735
   H       -2.91973        5.50594        2.55887
   H       -3.29074        3.12724        2.10774
   H       -5.06944        2.42194        3.86921
   H       -5.70608        2.27843        2.23324
   H       -7.33669        3.54177        3.68953
   H       -7.62214        4.79252        1.48616
   C       -6.28428        7.06925        1.74503
   H       -6.60739        5.65393        4.79227
   H       -5.21122        4.58513        5.08346
   H       -7.00483        6.91116        0.96997
   H       -5.40851        7.52334        1.33062
   H       -6.69976        7.71230        2.49253
*