6
Coordinates from ORCA-job Si2H4 E -581.391551232727
  Si     -3.658390      1.050620     -0.210800
  Si     -1.636580      1.095450      0.210800
  H      -4.186480     -0.193830     -0.831690
  H      -4.288140      2.336890     -0.613260
  H      -1.006820     -0.190820      0.613260
  H      -1.108480      2.339900      0.831690
6
Coordinates from ORCA-job Si2H4 E -581.393691022541
  Si     -3.664176      1.052329     -0.233330
  Si     -1.630792      1.093741      0.233331
  H      -4.212895     -0.186480     -0.836082
  H      -4.313907      2.328316     -0.619024
  H      -0.981053     -0.182245      0.619023
  H      -1.082066      2.332549      0.836081
6
Coordinates from ORCA-job Si2H4 E -581.395942199983
  Si     -3.679454      1.055039     -0.271758
  Si     -1.615510      1.091032      0.271757
  H      -4.270839     -0.165162     -0.848847
  H      -4.370061      2.304954     -0.635656
  H      -0.924899     -0.158880      0.635648
  H      -1.024127      2.311228      0.848856
6
Coordinates from ORCA-job Si2H4 E -581.396028962277
  Si     -3.683403      1.055223     -0.275732
  Si     -1.611561      1.090840      0.275732
  H      -4.282910     -0.161208     -0.852904
  H      -4.381831      2.300808     -0.640366
  H      -0.913142     -0.154737      0.640408
  H      -1.012043      2.307284      0.852863
6
Coordinates from ORCA-job Si2H4 E -581.396045800291
  Si     -3.685380      1.054993     -0.273757
  Si     -1.609585      1.091108      0.273760
  H      -4.286472     -0.160188     -0.855021
  H      -4.385259      2.299893     -0.642886
  H      -0.909651     -0.153819      0.642694
  H      -1.008542      2.306224      0.855209
6
Coordinates from ORCA-job Si2H4 E -581.396060619179
  Si     -3.687974      1.054243     -0.267748
  Si     -1.606981      1.091606      0.267729
  H      -4.288097     -0.158878     -0.858526
  H      -4.387201      2.299063     -0.645071
  H      -0.908106     -0.153008      0.646385
  H      -1.006531      2.305186      0.857230
6
Coordinates from ORCA-job Si2H4 E -581.396069649786
  Si     -3.690623      1.054238     -0.259515
  Si     -1.604396      1.093223      0.259633
  H      -4.288712     -0.158264     -0.856372
  H      -4.385409      2.298116     -0.652224
  H      -0.907556     -0.151990      0.644374
  H      -1.008195      2.302887      0.864104
6
Coordinates from ORCA-job Si2H4 E -581.396064048058
  Si     -3.694121      1.050412     -0.247358
  Si     -1.600692      1.091829      0.247035
  H      -4.282954     -0.153203     -0.872911
  H      -4.386241      2.296380     -0.641415
  H      -0.913585     -0.150309      0.661489
  H      -1.007296      2.303101      0.853159
6
Coordinates from ORCA-job Si2H4 E -581.396078369156
  Si     -3.692498      1.052820     -0.252860
  Si     -1.602462      1.093124      0.252852
  H      -4.285078     -0.156162     -0.861498
  H      -4.383789      2.297161     -0.649112
  H      -0.911316     -0.151089      0.649754
  H      -1.009747      2.302357      0.860864
6
Coordinates from ORCA-job Si2H4 E -581.396080047758
  Si     -3.692771      1.052918     -0.252427
  Si     -1.602198      1.093321      0.252440
  H      -4.284477     -0.156231     -0.860500
  H      -4.382787      2.297109     -0.649707
  H      -0.911922     -0.151031      0.648756
  H      -1.010734      2.302125      0.861438
6
Coordinates from ORCA-job Si2H4 E -581.396081446729
  Si     -3.693560      1.052757     -0.251197
  Si     -1.601409      1.093444      0.251209
  H      -4.283302     -0.156156     -0.860530
  H      -4.381653      2.297129     -0.649524
  H      -0.913107     -0.151053      0.648786
  H      -1.011858      2.302090      0.861255
6
Coordinates from ORCA-job Si2H4 E -581.396081772681
  Si     -3.693964      1.052650     -0.250685
  Si     -1.601001      1.093463      0.250689
  H      -4.282972     -0.156261     -0.860847
  H      -4.381448      2.297309     -0.649343
  H      -0.913430     -0.151235      0.649078
  H      -1.012074      2.302283      0.861108
