7
Coordinates from ORCA-job orca3 E -870.834203468591
  Si     -3.468180      1.127970     -0.138150
  Si     -1.689400      0.529680     -1.039870
  H      -3.458450      0.930140      1.332770
  H      -4.637720      0.498460     -0.801870
  Si     -0.083200      0.950210      0.212070
  H       1.066180      0.045430     -0.044720
  H      -0.448430      1.082300      1.644510
7
Coordinates from ORCA-job orca3 E -870.854027303052
  Si     -3.464917      1.063904     -0.107653
  Si     -1.683492      0.507981     -1.093326
  H      -3.523508      0.771713      1.351440
  H      -4.698971      0.647358     -0.821538
  Si     -0.076118      0.900002      0.206986
  H       1.098847      0.014129      0.011092
  H      -0.371042      1.259103      1.617740
7
Coordinates from ORCA-job orca3 E -870.872869021328
  Si     -3.463993      1.002997     -0.112227
  Si     -1.670968      0.449483     -1.182187
  H      -3.592521      0.742108      1.351886
  H      -4.762231      0.756526     -0.790521
  Si     -0.100698      0.814501      0.236448
  H       1.177454      0.090907      0.039467
  H      -0.306243      1.307668      1.621874
7
Coordinates from ORCA-job orca3 E -870.885702702680
  Si     -3.425057      0.944997     -0.116275
  Si     -1.650303      0.404412     -1.313486
  H      -3.578823      0.736900      1.354424
  H      -4.777697      0.843218     -0.721082
  Si     -0.159882      0.740037      0.255771
  H       1.196585      0.169712      0.094520
  H      -0.324024      1.324913      1.610869
7
Coordinates from ORCA-job orca3 E -870.893655464748
  Si     -3.347108      0.892767     -0.123480
  Si     -1.625969      0.367615     -1.472018
  H      -3.468514      0.783232      1.360097
  H      -4.747117      0.895131     -0.621962
  Si     -0.258195      0.668478      0.261011
  H       1.164319      0.265822      0.162395
  H      -0.436617      1.291145      1.598696
7
Coordinates from ORCA-job orca3 E -870.897571653974
  Si     -3.245713      0.852190     -0.131658
  Si     -1.604568      0.340670     -1.623109
  H      -3.279197      0.890873      1.359430
  H      -4.684127      0.902722     -0.511238
  Si     -0.376226      0.598558      0.250987
  H       1.093794      0.381974      0.229440
  H      -0.623164      1.197204      1.590888
7
Coordinates from ORCA-job orca3 E -870.898320844172
  Si     -3.219286      0.854311     -0.141178
  Si     -1.598060      0.371733     -1.664427
  H      -3.185927      1.050579      1.337701
  H      -4.673601      0.812116     -0.466283
  Si     -0.409336      0.563843      0.245919
  H       1.074673      0.434335      0.241569
  H      -0.707664      1.077273      1.611439
7
Coordinates from ORCA-job orca3 E -870.898917207456
  Si     -3.164566      0.807042     -0.127429
  Si     -1.599570      0.456534     -1.715471
  H      -3.033794      1.036549      1.335547
  H      -4.629869      0.771873     -0.421458
  Si     -0.469691      0.605914      0.220437
  H       0.997979      0.324013      0.316267
  H      -0.819689      1.162265      1.556848
7
Coordinates from ORCA-job orca3 E -870.900858115793
  Si     -3.208989      0.830596     -0.130597
  Si     -1.603668      0.589365     -1.664638
  H      -3.088490      1.154875      1.313268
  H      -4.651655      0.592276     -0.443893
  Si     -0.419613      0.644019      0.221141
  H       1.001235      0.173623      0.299557
  H      -0.748020      1.179437      1.569901
7
Coordinates from ORCA-job orca3 E -870.902243828965
  Si     -3.194928      0.845311     -0.132618
  Si     -1.595483      0.731535     -1.679414
  H      -3.099255      1.266339      1.288019
  H      -4.600511      0.418422     -0.404516
  Si     -0.425805      0.665543      0.211573
  H       0.930872      0.040764      0.315146
  H      -0.734090      1.196275      1.566549
7
Coordinates from ORCA-job orca3 E -870.903687727254
  Si     -3.167916      0.882878     -0.144919
  Si     -1.580162      0.848522     -1.714122
  H      -3.151289      1.401270      1.251376
  H      -4.499560      0.247847     -0.319799
  Si     -0.435088      0.681895      0.193888
  H       0.850657     -0.051346      0.326564
  H      -0.735841      1.153124      1.571752
7
Coordinates from ORCA-job orca3 E -870.903894167215
  Si     -3.147908      0.882278     -0.134262
  Si     -1.579617      0.975032     -1.701209
  H      -3.183104      1.488279      1.222854
  H      -4.405447      0.102189     -0.292898
  Si     -0.436419      0.706132      0.184881
  H       0.748277     -0.186681      0.324821
  H      -0.714982      1.196961      1.560553
7
Coordinates from ORCA-job orca3 E -870.902829664382
  Si     -3.051300      0.890352     -0.123647
  Si     -1.574597      0.959448     -1.746639
  H      -3.104273      1.541008      1.210823
  H      -4.307062      0.095242     -0.194162
  Si     -0.448657      0.776406      0.148201
  H       0.696738     -0.151038      0.340467
  H      -0.930049      1.052772      1.529697
7
Coordinates from ORCA-job orca3 E -870.904052838055
  Si     -3.122271      0.894419     -0.144261
  Si     -1.568574      0.889790     -1.751443
  H      -3.166660      1.447501      1.239840
  H      -4.426990      0.203656     -0.257482
  Si     -0.449250      0.694247      0.178790
  H       0.805449     -0.070680      0.330314
  H      -0.790905      1.105258      1.568982
7
Coordinates from ORCA-job orca3 E -870.904204452353
  Si     -3.132705      0.882108     -0.124858
  Si     -1.577852      0.997538     -1.705611
  H      -3.201914      1.523106      1.213609
  H      -4.375295      0.074881     -0.282046
  Si     -0.440659      0.708049      0.184734
  H       0.733130     -0.202983      0.311971
  H      -0.723905      1.181491      1.566941
7
Coordinates from ORCA-job orca3 E -870.904708647698
  Si     -3.114845      0.883081     -0.128640
  Si     -1.574590      0.949243     -1.729245
  H      -3.168807      1.490056      1.227747
  H      -4.391169      0.132200     -0.267958
  Si     -0.445560      0.713995      0.178220
  H       0.756677     -0.148446      0.320903
  H      -0.780906      1.144060      1.563712
7
Coordinates from ORCA-job orca3 E -870.904849548406
  Si     -3.106320      0.884394     -0.127415
  Si     -1.572495      0.953429     -1.735791
  H      -3.171621      1.494421      1.227392
  H      -4.378431      0.126677     -0.259916
  Si     -0.448572      0.716756      0.177020
  H       0.746780     -0.152649      0.320262
  H      -0.788541      1.141161      1.563188
7
Coordinates from ORCA-job orca3 E -870.905583727270
  Si     -3.062486      0.880639     -0.112710
  Si     -1.563584      0.979567     -1.762734
  H      -3.183332      1.499821      1.233968
  H      -4.319200      0.100296     -0.243842
  Si     -0.468510      0.728329      0.179193
  H       0.683818     -0.192520      0.309796
  H      -0.805906      1.168058      1.561069
7
Coordinates from ORCA-job orca3 E -870.906038728122
  Si     -3.040846      0.876724     -0.100616
  Si     -1.558954      1.013601     -1.772016
  H      -3.199570      1.502248      1.238695
  H      -4.275161      0.064109     -0.248775
  Si     -0.484816      0.732121      0.186988
  H       0.623178     -0.243215      0.299166
  H      -0.783031      1.218602      1.561298
7
Coordinates from ORCA-job orca3 E -870.906418990123
  Si     -3.039676      0.868535     -0.091453
  Si     -1.558298      1.035474     -1.768680
  H      -3.203669      1.488498      1.248985
  H      -4.261623      0.042566     -0.278703
  Si     -0.501140      0.728997      0.201773
  H       0.579970     -0.282517      0.291253
  H      -0.734764      1.282637      1.561565
7
Coordinates from ORCA-job orca3 E -870.906608808025
  Si     -3.042047      0.870552     -0.090223
  Si     -1.558929      1.055361     -1.765465
  H      -3.198519      1.493660      1.249341
  H      -4.243442      0.015946     -0.287356
  Si     -0.513799      0.727245      0.207507
  H       0.551840     -0.304585      0.290038
  H      -0.714305      1.306011      1.560899
7
Coordinates from ORCA-job orca3 E -870.906792498684
  Si     -3.052803      0.874570     -0.095415
  Si     -1.560307      1.056591     -1.763792
  H      -3.166603      1.480928      1.255780
  H      -4.247113      0.011468     -0.300462
  Si     -0.529476      0.722797      0.212804
  H       0.544286     -0.303920      0.296369
  H      -0.707185      1.321757      1.559455
7
Coordinates from ORCA-job orca3 E -870.906874109477
  Si     -3.053853      0.885589     -0.102770
  Si     -1.559154      1.066030     -1.769429
  H      -3.145243      1.480245      1.255503
  H      -4.229851     -0.003945     -0.290692
  Si     -0.540274      0.725132      0.209336
  H       0.525471     -0.307721      0.304420
  H      -0.716295      1.318861      1.558373
7
Coordinates from ORCA-job orca3 E -870.906893271305
  Si     -3.058121      0.888318     -0.107440
  Si     -1.558130      1.054289     -1.772268
  H      -3.133281      1.464663      1.259782
  H      -4.242935      0.010806     -0.291292
  Si     -0.539873      0.725459      0.207973
  H       0.535151     -0.295438      0.309889
  H      -0.722011      1.316093      1.558095
7
Coordinates from ORCA-job orca3 E -870.906896260928
  Si     -3.056371      0.889157     -0.107549
  Si     -1.557190      1.054511     -1.773651
  H      -3.135274      1.464964      1.259628
  H      -4.240483      0.010175     -0.288537
  Si     -0.539051      0.727129      0.206803
  H       0.532932     -0.296276      0.309735
  H      -0.723763      1.314529      1.558311
7
Coordinates from ORCA-job orca3 E -870.906897161956
  Si     -3.056234      0.889514     -0.107428
  Si     -1.556615      1.053926     -1.773721
  H      -3.136674      1.465216      1.259620
  H      -4.240303      0.010162     -0.288101
  Si     -0.538600      0.727696      0.206609
  H       0.532910     -0.296341      0.309047
  H      -0.723684      1.314017      1.558713
7
Coordinates from ORCA-job orca3 E -870.906898173294
  Si     -3.056440      0.890175     -0.107112
  Si     -1.555664      1.052709     -1.773387
  H      -3.138204      1.466000      1.259658
  H      -4.240122      0.009857     -0.288024
  Si     -0.538355      0.728449      0.206535
  H       0.533089     -0.296225      0.307560
  H      -0.723504      1.313226      1.559509
7
Coordinates from ORCA-job orca3 E -870.906898396311
  Si     -3.056806      0.890403     -0.106972
  Si     -1.555374      1.052255     -1.772996
  H      -3.138485      1.466583      1.259651
  H      -4.240047      0.009545     -0.288315
  Si     -0.538508      0.728535      0.206640
  H       0.533243     -0.296042      0.306918
  H      -0.723223      1.312913      1.559815
