! TPSSh D3BJ TightSCF OPT FREQ cc-pVDZ
!  Largeprint Printbasis PrintMOs

%pal
nprocs 24
end

%scf
maxiter 500
end

%geom
maxiter 500
end

* xyz 0 1
  Si       -4.45791        1.02474        0.04461
  Si       -2.59183        1.93673        0.43517
  Si       -0.84617        0.79580        0.06926
  Si        0.99019        1.77374        0.41905
  Si        2.82271        0.73581        0.14717
  Si        4.46714        1.96995        0.45026
  Si        6.51264        1.86023        0.35710
  Si        7.98430        0.39534        0.31238
  Si        9.93604        1.23171        0.33039
  Si       11.58088       -0.07570        0.37292
  Si       -6.19001        2.15483        0.48607
  Si       -8.05101        1.26049        0.03736
  Si       -9.78713        2.36902        0.50924
  Si      -11.61525        1.51909       -0.10575
   H      -13.23341        3.85640        1.01418
   C      -13.48123        3.75895       -0.04171
   C      -14.52752        4.53914       -0.54658
   H      -15.04821        5.23558        0.10613
   C      -14.93469        4.39310       -1.86975
   H      -15.76620        4.97993       -2.25174
   C      -14.28757        3.47533       -2.69391
   H      -14.61806        3.34993       -3.72207
   C      -13.24368        2.68741       -2.19347
   H      -12.79844        1.94599       -2.85344
   C      -12.83014        2.80735       -0.85327
   H      -13.26948        0.48341        4.59793
   C      -13.49737        0.45847        3.53500
   C      -14.76140        0.04658        3.11679
   H      -15.51494       -0.24248        3.84448
   C      -15.05980        0.01825        1.76018
   H      -16.04813       -0.28404        1.42346
   C      -14.09283        0.40638        0.82867
   H      -14.37958        0.40199       -0.22350
   C      -12.81017        0.85330        1.23011
   C      -12.52805        0.86074        2.60420
   H      -11.56790        1.19919        2.98252
   H       15.89679       -1.37548       -1.83754
   C       15.07038       -0.67118       -1.87008
   C       13.98528       -0.82295       -1.00085
   H       14.01826       -1.65179       -0.29222
   C       12.91542        0.10173       -0.98268
   C       12.96567        1.17115       -1.89336
   H       12.18909        1.92953       -1.91813
   C       14.05171        1.31385       -2.76935
   H       14.08594        2.15821       -3.45530
   C       15.10376        0.40242       -2.75468
   H       15.95378        0.53168       -3.41956
   H       15.31608        0.39096        4.81809
   C       14.58295        0.35326        4.01653
   C       13.50256       -0.51813        4.08909
   H       13.39013       -1.16207        4.96026
   C       12.57611       -0.59931        3.04100
   H       11.76961       -1.32191        3.12009
   C       12.71758        0.20757        1.89556
   C       13.80198        1.10774        1.85745
   H       13.98082        1.73853        0.98541
   C       14.73349        1.17293        2.89935
   H       15.58605        1.84039        2.82590
*

