28
Coordinates from ORCA-job 2Si2Ph E -1194.203286322068
  Si     -3.177330      1.084040      1.140850
  Si     -1.389870      2.074230      0.771820
  H      -4.295430      2.698020      3.412160
  C      -4.912240      2.870150      2.531360
  C      -4.621530      2.238060      1.308280
  C      -5.462070      2.495250      0.209850
  H      -5.284420      2.022460     -0.755450
  C      -6.551010      3.362300      0.329790
  H      -7.193280      3.553930     -0.524940
  C      -6.812360      3.977240      1.545920
  C      -6.002680      3.738290      2.649690
  H      -6.200930      4.212790      3.605340
  O      -7.884950      4.815840      1.618190
  H      -7.940890      5.166460      2.521760
  H      -3.441010     -0.115010      0.300350
  H       0.591900     -0.175320      0.615990
  C       0.463730      0.243680     -0.380640
  C      -0.412780      1.319010     -0.612820
  C      -0.523420      1.816680     -1.924550
  H      -1.183350      2.654280     -2.149290
  C       0.211870      1.252880     -2.971970
  H       0.104170      1.658930     -3.972570
  C       1.066120      0.188070     -2.713670
  C       1.197540     -0.318800     -1.428430
  H       1.870690     -1.150220     -1.240040
  O       1.801640     -0.391050     -3.704930
  H       1.604730      0.065430     -4.539000
  H      -1.464120      3.560070      0.737220
28
Coordinates from ORCA-job 2Si2Ph E -1194.214755347813
  Si     -3.276084      1.168373      0.946425
  Si     -1.456494      2.132628      0.550093
  H      -4.235347      2.745110      3.326728
  C      -4.929599      2.909755      2.510292
  C      -4.732452      2.285840      1.268922
  C      -5.671403      2.529601      0.254718
  H      -5.564391      2.064306     -0.719178
  C      -6.757379      3.372469      0.465624
  H      -7.472439      3.553860     -0.327256
  C      -6.925114      3.987824      1.701508
  C      -6.012949      3.759221      2.727168
  H      -6.135991      4.231454      3.696682
  O      -8.006066      4.809038      1.861787
  H      -7.993909      5.161270      2.760440
  H      -3.563038     -0.072016      0.180644
  H       0.485335     -0.171545      0.577762
  C       0.452265      0.232045     -0.427809
  C      -0.371399      1.328050     -0.733428
  C      -0.361176      1.809554     -2.050138
  H      -0.977135      2.657493     -2.330312
  C       0.430787      1.213972     -3.028234
  H       0.413593      1.608648     -4.039045
  C       1.230662      0.121774     -2.700644
  C       1.243185     -0.371284     -1.401722
  H       1.870547     -1.218893     -1.154619
  O       2.024109     -0.497999     -3.625421
  H       1.913067     -0.051395     -4.474065
  H      -1.462464      3.618536      0.563348
28
Coordinates from ORCA-job 2Si2Ph E -1194.222869601835
  Si     -3.377142      1.256841      0.770952
  Si     -1.511654      2.175524      0.336452
  H      -4.171650      2.820390      3.227769
  C      -4.939687      2.965851      2.477882
  C      -4.831725      2.337328      1.231315
  C      -5.862176      2.552319      0.303527
  H      -5.821849      2.082294     -0.672111
  C      -6.944856      3.365484      0.597818
  H      -7.730791      3.525295     -0.128703
  C      -7.023357      3.989485      1.842048
  C      -6.016251      3.789227      2.783632
  H      -6.071025      4.268079      3.756304
  O      -8.110798      4.783115      2.084581
  H      -8.035726      5.146471      2.974816
  H      -3.690592     -0.024608      0.094481
  H       0.362769     -0.186415      0.522274
  C       0.426091      0.209596     -0.483969
  C      -0.338181      1.328525     -0.847378
  C      -0.208180      1.804504     -2.158014
  H      -0.776694      2.668197     -2.482396
  C       0.636544      1.186526     -3.069100
  H       0.713914      1.575850     -4.079557
  C       1.377352      0.068368     -2.684897
  C       1.269785     -0.421932     -1.386640
  H       1.849912     -1.287405     -1.094528
  O       2.223797     -0.580215     -3.541670
  H       2.198154     -0.136034     -4.397299
  H      -1.437264      3.655033      0.402682
28
Coordinates from ORCA-job 2Si2Ph E -1194.227816353027
  Si     -3.467959      1.335929      0.610490
  Si     -1.564504      2.212384      0.143515
  H      -4.096128      2.915157      3.109529
  C      -4.931213      3.027726      2.428342
  C      -4.909333      2.378070      1.188738
  C      -6.022906      2.547733      0.349308
  H      -6.046915      2.060946     -0.619073
  C      -7.100452      3.333277      0.719691
  H      -7.951632      3.460507      0.063483
  C      -7.091867      3.979633      1.956996
  C      -6.001166      3.825693      2.810855
  H      -5.992362      4.323431      3.775647
  O      -8.178873      4.744438      2.274859
  H      -8.042861      5.129796      3.148769
  H      -3.799061      0.015328      0.029131
  H       0.215592     -0.213938      0.456887
  C       0.374588      0.184623     -0.538201
  C      -0.321479      1.332991     -0.943760
  C      -0.073389      1.815304     -2.236359
  H      -0.588805      2.699750     -2.592801
  C       0.817810      1.178726     -3.085978
  H       0.989799      1.569460     -4.084292
  C       1.489201      0.031388     -2.660475
  C       1.263123     -0.467543     -1.378675
  H       1.790819     -1.355753     -1.056682
  O       2.376629     -0.638843     -3.454467
  H       2.434898     -0.188285     -4.305441
  H      -1.412835      3.679761      0.270236
28
Coordinates from ORCA-job 2Si2Ph E -1194.230889433592
  Si     -3.544757      1.402124      0.456765
  Si     -1.621399      2.254075     -0.031209
  H      -4.003780      3.026623      2.960434
  C      -4.900144      3.092058      2.354770
  C      -4.964926      2.404751      1.136543
  C      -6.154490      2.512062      0.393848
  H      -6.243505      1.995843     -0.555621
  C      -7.222957      3.272297      0.836492
  H      -8.133939      3.354228      0.257665
  C      -7.127252      3.956398      2.049868
  C      -5.961282      3.865047      2.807776
  H      -5.888972      4.393382      3.753457
  O      -8.206753      4.694706      2.440313
  H      -8.009315      5.112565      3.287493
  H      -3.880331      0.048627     -0.038358
  H       0.029849     -0.244706      0.377777
  C       0.288013      0.164143     -0.592216
  C      -0.324589      1.349908     -1.025543
  C       0.047572      1.847835     -2.283778
  H      -0.402611      2.759652     -2.659923
  C       0.978798      1.191160     -3.073620
  H       1.249724      1.590366     -4.046308
  C       1.563389      0.007097     -2.622477
  C       1.214253     -0.507666     -1.374404
  H       1.678632     -1.424443     -1.034799
  O       2.480627     -0.685659     -3.358048
  H       2.627954     -0.221633     -4.191225
  H      -1.409089      3.706850      0.154600
28
Coordinates from ORCA-job 2Si2Ph E -1194.233034705539
  Si     -3.619353      1.464661      0.284501
  Si     -1.693638      2.309938     -0.217781
  H      -3.902463      3.132573      2.772641
  C      -4.854212      3.149683      2.254358
  C      -5.008839      2.426315      1.064506
  C      -6.266805      2.468639      0.435121
  H      -6.424553      1.922963     -0.488704
  C      -7.318081      3.200315      0.961178
  H      -8.283542      3.233177      0.472645
  C      -7.133046      3.919989      2.142680
  C      -5.898439      3.893879      2.788230
  H      -5.759354      4.449563      3.710483
  O      -8.197311      4.627885      2.618638
  H      -7.936732      5.075464      3.433181
  H      -3.953482      0.090034     -0.150740
  H      -0.195123     -0.251381      0.282664
  C       0.168004      0.161510     -0.651353
  C      -0.351417      1.380762     -1.113854
  C       0.154361      1.885660     -2.322873
  H      -0.221042      2.823047     -2.718371
  C       1.128346      1.203726     -3.038046
  H       1.506279      1.607420     -3.972471
  C       1.617652     -0.012153     -2.559720
  C       1.134440     -0.534200     -1.360932
  H       1.529217     -1.475585     -1.000847
  O       2.569214     -0.730145     -3.222439
  H       2.813291     -0.257926     -4.028117
  H      -1.444656      3.751878      0.005692
28
Coordinates from ORCA-job 2Si2Ph E -1194.234453338098
  Si     -3.675704      1.497023      0.157710
  Si     -1.755947      2.343359     -0.348943
  H      -3.811764      3.272483      2.563606
  C      -4.806886      3.224076      2.137386
  C      -5.038412      2.432616      1.003973
  C      -6.349266      2.390223      0.494061
  H      -6.566795      1.791051     -0.383032
  C      -7.380432      3.103276      1.082964
  H      -8.387615      3.069916      0.687755
  C      -7.119585      3.890051      2.205312
  C      -5.830803      3.949973      2.731802
  H      -5.632506      4.557196      3.609639
  O      -8.166236      4.576436      2.747986
  H      -7.851332      5.075576      3.511513
  H      -4.000500      0.104491     -0.226612
  H      -0.430206     -0.294957      0.145421
  C       0.032279      0.139110     -0.733285
  C      -0.388190      1.401504     -1.182068
  C       0.245870      1.933677     -2.316485
  H      -0.049986      2.904349     -2.698418
  C       1.252510      1.239133     -2.972412
  H       1.732203      1.666085     -3.847858
  C       1.644642     -0.016603     -2.508004
  C       1.030786     -0.568125     -1.385039
  H       1.352302     -1.540432     -1.034252
  O       2.626159     -0.746225     -3.112659
  H       2.964049     -0.250922     -3.868816
  H      -1.479914      3.773350     -0.080977
28
Coordinates from ORCA-job 2Si2Ph E -1194.235478538323
  Si     -3.707625      1.503044      0.089136
  Si     -1.796180      2.355040     -0.413504
  H      -3.752528      3.421687      2.372321
  C      -4.773811      3.303152      2.029737
  C      -5.053678      2.426258      0.971779
  C      -6.395872      2.294305      0.571913
  H      -6.652009      1.628358     -0.244471
  C      -7.411756      3.001743      1.193731
  H      -8.443241      2.897933      0.882297
  C      -7.103606      3.873778      2.237999
  C      -5.782260      4.024133      2.655277
  H      -5.545294      4.697186      3.473443
  O      -8.137035      4.551245      2.817570
  H      -7.787488      5.114484      3.518882
  H      -4.027497      0.104396     -0.277744
  H      -0.626740     -0.364149     -0.009926
  C      -0.082575      0.102607     -0.822634
  C      -0.413620      1.410486     -1.215129
  C       0.326321      1.982227     -2.262064
  H       0.101642      2.987862     -2.599239
  C       1.349095      1.284529     -2.888417
  H       1.910289      1.744278     -3.696022
  C       1.652231     -0.014744     -2.481467
  C       0.931965     -0.607698     -1.446168
  H       1.184685     -1.614130     -1.137798
  O       2.647141     -0.748550     -3.059802
  H       3.061097     -0.221726     -3.754220
  H      -1.512930      3.779956     -0.125208
28
Coordinates from ORCA-job 2Si2Ph E -1194.236326619407
  Si     -3.722357      1.501706      0.056749
  Si     -1.819888      2.359812     -0.445865
  H      -3.722194      3.567055      2.199161
  C      -4.756052      3.382382      1.931595
  C      -5.059626      2.420597      0.956372
  C      -6.416521      2.202204      0.658754
  H      -6.692652      1.468339     -0.090086
  C      -7.423658      2.906899      1.297586
  H      -8.466327      2.733859      1.064240
  C      -7.092634      3.864216      2.256356
  C      -5.755457      4.101661      2.572056
  H      -5.498588      4.839678      3.325638
  O      -8.118706      4.534107      2.858395
  H      -7.751865      5.160838      3.493866
  H      -4.040281      0.100710     -0.302191
  H      -0.793335     -0.428882     -0.175336
  C      -0.179792      0.068047     -0.917697
  C      -0.428340      1.415570     -1.231243
  C       0.401997      2.023442     -2.185345
  H       0.243749      3.060293     -2.459970
  C       1.431439      1.324176     -2.798481
  H       2.062574      1.814055     -3.533424
  C       1.650692     -0.014204     -2.472675
  C       0.839746     -0.644132     -1.529837
  H       1.027395     -1.680845     -1.281565
  O       2.648644     -0.751906     -3.041813
  H       3.128717     -0.196734     -3.668179
  H      -1.537962      3.784747     -0.156792
28
Coordinates from ORCA-job 2Si2Ph E -1194.237008888199
  Si     -3.722446      1.495230      0.059279
  Si     -1.826192      2.356396     -0.448209
  H      -3.716641      3.713322      2.037952
  C      -4.752690      3.462902      1.841331
  C      -5.058532      2.415964      0.958178
  C      -6.416519      2.113687      0.756340
  H      -6.695267      1.311875      0.081820
  C      -7.422306      2.817589      1.397945
  H      -8.465532      2.577250      1.238700
  C      -7.089790      3.860246      2.262375
  C      -5.750534      4.182614      2.481783
  H      -5.490767      4.986751      3.163355
  O      -8.114524      4.525502      2.871943
  H      -7.745827      5.216045      3.436088
  H      -4.039579      0.091835     -0.289100
  H      -0.937794     -0.487840     -0.353459
  C      -0.263670      0.035793     -1.021294
  C      -0.433613      1.415124     -1.234264
  C       0.476195      2.054806     -2.089632
  H       0.381793      3.117260     -2.283962
  C       1.504882      1.356337     -2.704890
  H       2.198078      1.872212     -3.362037
  C       1.643242     -0.013685     -2.482638
  C       0.752487     -0.675394     -1.637833
  H       0.877626     -1.736765     -1.466833
  O       2.634997     -0.753792     -3.059786
  H       3.175265     -0.174949     -3.611146
  H      -1.543621      3.781377     -0.161733
28
Coordinates from ORCA-job 2Si2Ph E -1194.237529134845
  Si     -3.729743      1.497158      0.050610
  Si     -1.835465      2.355388     -0.468259
  H      -3.727043      3.841995      1.877455
  C      -4.758861      3.533472      1.753716
  C      -5.059924      2.417219      0.957444
  C      -6.410484      2.042329      0.852211
  H      -6.685403      1.185194      0.247633
  C      -7.413839      2.742146      1.502479
  H      -8.451074      2.444590      1.418091
  C      -7.086988      3.853671      2.278462
  C      -5.754281      4.248654      2.401370
  H      -5.497909      5.106948      3.014782
  O      -8.108410      4.511576      2.901030
  H      -7.743936      5.254465      3.397470
  H      -4.057405      0.097562     -0.301416
  H      -1.068138     -0.523817     -0.534070
  C      -0.338492      0.015883     -1.127015
  C      -0.440875      1.413268     -1.246967
  C       0.541278      2.070897     -2.002951
  H       0.501959      3.147975     -2.121556
  C       1.573711      1.372494     -2.612619
  H       2.324150      1.902523     -3.190990
  C       1.643694     -0.014344     -2.484881
  C       0.680280     -0.693911     -1.738498
  H       0.752891     -1.769262     -1.638799
  O       2.634475     -0.756124     -3.060714
  H       3.229156     -0.165085     -3.538528
  H      -1.554604      3.784827     -0.205217
28
Coordinates from ORCA-job 2Si2Ph E -1194.237923924764
  Si     -3.708961      1.483278      0.115264
  Si     -1.809145      2.329067     -0.415940
  H      -3.763526      3.984700      1.727179
  C      -4.780688      3.614191      1.672907
  C      -5.049958      2.418011      0.989066
  C      -6.381125      1.967976      0.972699
  H      -6.630658      1.047788      0.456640
  C      -7.396419      2.671148      1.600269
  H      -8.418351      2.315270      1.584860
  C      -7.102037      3.861817      2.263515
  C      -5.788012      4.332113      2.296924
  H      -5.556396      5.253180      2.822921
  O      -8.133882      4.519902      2.868476
  H      -7.792618      5.321569      3.282836
  H      -4.038888      0.077884     -0.208881
  H      -1.179658     -0.567973     -0.740871
  C      -0.401451     -0.010565     -1.249576
  C      -0.433009      1.395443     -1.233686
  C       0.610588      2.072427     -1.882096
  H       0.627351      3.156355     -1.892602
  C       1.633705      1.384772     -2.519318
  H       2.433059      1.929288     -3.012499
  C       1.632992     -0.009371     -2.527904
  C       0.607312     -0.708341     -1.888492
  H       0.625341     -1.790476     -1.893775
  O       2.609836     -0.742456     -3.137378
  H       3.251777     -0.140494     -3.532864
  H      -1.508457      3.751187     -0.137403
28
Coordinates from ORCA-job 2Si2Ph E -1194.238201395289
  Si     -3.707679      1.489735      0.133240
  Si     -1.800566      2.318222     -0.414925
  H      -3.808919      4.103508      1.571878
  C      -4.806401      3.679217      1.594288
  C      -5.045951      2.427330      1.005037
  C      -6.352403      1.915390      1.081416
  H      -6.577765      0.951087      0.639506
  C      -7.373743      2.613206      1.706272
  H      -8.377261      2.211171      1.760666
  C      -7.109803      3.858190      2.274730
  C      -5.819711      4.389477      2.216944
  H      -5.612466      5.355351      2.667412
  O      -8.146026      4.510263      2.878119
  H      -7.826993      5.353831      3.221503
  H      -4.058710      0.091386     -0.198981
  H      -1.282575     -0.578027     -0.937437
  C      -0.456422     -0.017960     -1.360968
  C      -0.431145      1.383334     -1.238050
  C       0.669354      2.060527     -1.784082
  H       0.729848      3.140635     -1.710366
  C       1.693062      1.377797     -2.427140
  H       2.536161      1.921823     -2.841711
  C       1.636247     -0.009734     -2.542789
  C       0.553865     -0.709300     -2.003813
  H       0.528172     -1.787677     -2.093709
  O       2.607696     -0.737624     -3.166317
  H       3.291653     -0.137307     -3.487276
  H      -1.492798      3.743839     -0.163178
28
Coordinates from ORCA-job 2Si2Ph E -1194.238326149132
  Si     -3.694435      1.489734      0.174238
  Si     -1.782857      2.302844     -0.390631
  H      -3.860975      4.199917      1.432149
  C      -4.835653      3.733505      1.520973
  C      -5.038508      2.435641      1.024776
  C      -6.317219      1.874459      1.181805
  H      -6.512842      0.873368      0.813769
  C      -7.347922      2.569003      1.795583
  H      -8.330186      2.129442      1.911945
  C      -7.120729      3.858602      2.272070
  C      -5.858004      4.439022      2.133629
  H      -5.679711      5.441172      2.511368
  O      -8.163864      4.506535      2.868163
  H      -7.870112      5.382791      3.145626
  H      -4.050617      0.087204     -0.134984
  H      -1.369568     -0.569474     -1.122979
  C      -0.504697     -0.014578     -1.468737
  C      -0.428563      1.371525     -1.238942
  C       0.717377      2.040723     -1.693029
  H       0.817411      3.108741     -1.534902
  C       1.738049      1.364875     -2.348665
  H       2.617211      1.902369     -2.690415
  C       1.632308     -0.006805     -2.568338
  C       0.503109     -0.698356     -2.122966
  H       0.439034     -1.765040     -2.295257
  O       2.598677     -0.727716     -3.207717
  H       3.318147     -0.134922     -3.457117
  H      -1.456143      3.723110     -0.131143
28
Coordinates from ORCA-job 2Si2Ph E -1194.238389895104
  Si     -3.698934      1.506965      0.167448
  Si     -1.786888      2.305792     -0.419712
  H      -3.936005      4.295501      1.248215
  C      -4.877855      3.787645      1.422187
  C      -5.041445      2.453225      1.016457
  C      -6.280649      1.843403      1.276710
  H      -6.444228      0.812964      0.981458
  C      -7.310166      2.524695      1.907936
  H      -8.261026      2.047016      2.105962
  C      -7.121248      3.848724      2.297430
  C      -5.899148      4.479135      2.052342
  H      -5.751432      5.509908      2.359686
  O      -8.159641      4.482185      2.917100
  H      -7.893141      5.385078      3.129041
  H      -4.060463      0.100606     -0.119078
  H      -1.467589     -0.527493     -1.344297
  C      -0.559564      0.007989     -1.597343
  C      -0.438304      1.371375     -1.270404
  C       0.759020      2.015832     -1.614224
  H       0.894630      3.065431     -1.378397
  C       1.788297      1.337358     -2.254125
  H       2.707458      1.855551     -2.509273
  C       1.639922     -0.012087     -2.565963
  C       0.457529     -0.678105     -2.234695
  H       0.359233     -1.727375     -2.481710
  O       2.613721     -0.735433     -3.191571
  H       3.370906     -0.161173     -3.359269
  H      -1.444271      3.722980     -0.161640
28
Coordinates from ORCA-job 2Si2Ph E -1194.238406871515
  Si     -3.700009      1.511305      0.162245
  Si     -1.788308      2.307419     -0.424519
  H      -3.958587      4.317472      1.195004
  C      -4.889969      3.799733      1.394281
  C      -5.042555      2.457116      1.012144
  C      -6.270203      1.836330      1.300147
  H      -6.426009      0.800006      1.021835
  C      -7.298346      2.514367      1.937020
  H      -8.240212      2.028094      2.156075
  C      -7.119825      3.846200      2.304216
  C      -5.910120      4.488147      2.030009
  H      -5.771018      5.525734      2.317755
  O      -8.156553      4.476121      2.930381
  H      -7.897753      5.385121      3.125207
  H      -4.059538      0.103008     -0.117988
  H      -1.490537     -0.513262     -1.398576
  C      -0.571858      0.015210     -1.626731
  C      -0.440427      1.371532     -1.275720
  C       0.768283      2.008406     -1.593362
  H       0.911317      3.053014     -1.340402
  C       1.799017      1.329299     -2.230060
  H       2.726084      1.842406     -2.466133
  C       1.640962     -0.013685     -2.564548
  C       0.447144     -0.671880     -2.260567
  H       0.340013     -1.715422     -2.527470
  O       2.615726     -0.736955     -3.189143
  H       3.380739     -0.167721     -3.337570
  H      -1.438740      3.720574     -0.153261
28
Coordinates from ORCA-job 2Si2Ph E -1194.238417290309
  Si     -3.702088      1.513635      0.153164
  Si     -1.791020      2.309146     -0.426976
  H      -3.970068      4.326659      1.164430
  C      -4.895810      3.804687      1.378404
  C      -5.043865      2.458693      1.007156
  C      -6.265640      1.833288      1.310064
  H      -6.419073      0.794765      1.038672
  C      -7.291697      2.509845      1.951529
  H      -8.229129      2.019928      2.181242
  C      -7.117166      3.845125      2.308789
  C      -5.913898      4.491892      2.019127
  H      -5.778057      5.532505      2.297254
  O      -8.152296      4.473077      2.939682
  H      -7.896774      5.384603      3.126893
  H      -4.059656      0.105336     -0.129861
  H      -1.499545     -0.507862     -1.419048
  C      -0.576696      0.017685     -1.636963
  C      -0.442109      1.370966     -1.276744
  C       0.770881      2.005068     -1.584246
  H       0.916209      3.047893     -1.325295
  C       1.802465      1.326125     -2.219240
  H       2.732093      1.837777     -2.448299
  C       1.641240     -0.014437     -2.562614
  C       0.443532     -0.669747     -2.269088
  H       0.332894     -1.710930     -2.543637
  O       2.616868     -0.736927     -3.186995
  H       3.384266     -0.169031     -3.328029
  H      -1.437141      3.717926     -0.139099
28
Coordinates from ORCA-job 2Si2Ph E -1194.238418904039
  Si     -3.702587      1.514341      0.151441
  Si     -1.791671      2.309086     -0.427832
  H      -3.975593      4.331184      1.151560
  C      -4.898916      3.807389      1.371438
  C      -5.044239      2.459533      1.006325
  C      -6.262952      1.831704      1.316536
  H      -6.414154      0.791522      1.050316
  C      -7.288564      2.507782      1.959092
  H      -8.223622      2.016035      2.194433
  C      -7.116721      3.845102      2.310284
  C      -5.916482      4.494169      2.013409
  H      -5.782624      5.536322      2.286688
  O      -8.151530      4.472313      2.942448
  H      -7.898163      5.385307      3.125334
  H      -4.060739      0.106924     -0.134916
  H      -1.503394     -0.505909     -1.430150
  C      -0.579028      0.018727     -1.643721
  C      -0.442692      1.370078     -1.277503
  C       0.772614      2.002843     -1.578709
  H       0.919515      3.044135     -1.314562
  C       1.804606      1.324340     -2.213389
  H       2.736173      1.834771     -2.437241
  C       1.641517     -0.014428     -2.563030
  C       0.441534     -0.668302     -2.275700
  H       0.329428     -1.708186     -2.554482
  O       2.617492     -0.736400     -3.187414
  H       3.386460     -0.169550     -3.323844
  H      -1.436947      3.716857     -0.136541
28
Coordinates from ORCA-job 2Si2Ph E -1194.238419860928
  Si     -3.701936      1.512955      0.153453
  Si     -1.791621      2.307994     -0.426184
  H      -3.973636      4.329127      1.154982
  C      -4.897915      3.806388      1.373319
  C      -5.043913      2.458794      1.007869
  C      -6.263479      1.831902      1.316630
  H      -6.414964      0.791717      1.050610
  C      -7.289375      2.508850      1.957685
  H      -8.225162      2.018009      2.191971
  C      -7.117029      3.846185      2.308911
  C      -5.915700      4.494071      2.013884
  H      -5.781255      5.536054      2.287544
  O      -8.152470      4.474126      2.939269
  H      -7.898915      5.386965      3.122618
  H      -4.060375      0.106512     -0.136809
  H      -1.500909     -0.508656     -1.425825
  C      -0.577772      0.017189     -1.641655
  C      -0.442442      1.368629     -1.275829
  C       0.771869      2.002649     -1.578475
  H       0.918107      3.043968     -1.314123
  C       1.803613      1.325203     -2.214602
  H       2.734665      1.836231     -2.439292
  C       1.641338     -0.013642     -2.564495
  C       0.442444     -0.668758     -2.275240
  H       0.331111     -1.708888     -2.553370
  O       2.616970     -0.734538     -3.190505
  H       3.385124     -0.166943     -3.328266
  H      -1.437654      3.715597     -0.133805
