! TPSSh D3BJ TightSCF OPT FREQ cc-pVTZ
!  Largeprint Printbasis PrintMOs

%pal
nprocs 24
end

%scf
maxiter 500
end

%geom
maxiter 500
end

* xyz 0 1 
Si       -1.26991        1.00479        0.43915 
Si        0.30271        0.36928       -0.76667 
Si        1.99691        0.68983        0.38980 
 H       -3.57582        1.06686        2.22174 
 C       -3.96576        0.99416        1.20641 
 C       -3.08326        0.90444        0.10270 
 C       -3.66055        0.81677       -1.17306 
 H       -3.04673        0.74906       -2.06969 
 C       -5.05613        0.83735       -1.33832 
 H       -5.49288        0.78257       -2.33077 
 C       -5.89115        0.94635       -0.23052 
 C       -5.35547        1.01823        1.04305 
 H       -5.99037        1.10450        1.92092 
 O       -7.23795        0.98801       -0.44017 
 H       -7.68013        1.09553        0.41932 
 H       -0.97799        0.88148        1.89026 
 H        6.74545        0.24896        1.69571 
 C        6.07349        0.23946        0.84345 
 C        6.54725        0.08451       -0.44940 
 C        5.66568        0.07832       -1.52298 
 H        6.05452       -0.04243       -2.53095 
 C        4.28584        0.23886       -1.30989 
 H        3.63575        0.24132       -2.18210 
 C        3.77120        0.40582       -0.01403 
 C        4.69878        0.39723        1.05418 
 H        4.36003        0.53072        2.08251 
 O        7.87936       -0.05808       -0.70471 
 H        8.36287       -0.00162        0.13616 
 H        1.80624        1.49817        1.62017 
*