! TPSSh D3BJ TightSCF OPT FREQ cc-pVDZ
!  Largeprint Printbasis PrintMOs

%pal
nprocs 24
end

%scf
maxiter 500
end

%geom
maxiter 500
end

* xyz 0 1
  Si       -3.41812        0.33508       -0.17025
  Si       -1.51587        0.65636        0.61018
  Si       -0.18279        1.12691       -0.91862
  Si        1.75978        1.49157       -0.30628
   H       -4.75726        2.95800        0.45687
   C       -4.68563        2.86049       -0.62567
   C       -5.23955        3.87191       -1.41550
   H       -5.71529        4.72749       -0.94328
   C       -5.19998        3.77582       -2.80316
   H       -5.64114        4.55710       -3.41588
   C       -4.60387        2.66963       -3.40236
   H       -4.57924        2.58933       -4.48596
   C       -4.05139        1.65465       -2.61490
   H       -3.61007        0.79700       -3.11980
   C       -4.08441        1.73067       -1.21086
   H       -3.92724        0.92312        2.78099
   C       -4.75747        0.34585        2.37955
   C       -5.81538        0.03850        3.24151
   H       -5.78357        0.36887        4.27642
   C       -6.91266       -0.68191        2.77808
   H       -7.73593       -0.91418        3.44763
   C       -6.95509       -1.09647        1.45119
   H       -7.81392       -1.64971        1.08060
   C       -5.89818       -0.79353        0.58897
   H       -5.97451       -1.11999       -0.44783
   C       -4.77627       -0.06818        1.03652
   H        6.17085        2.70296       -2.29094
   C        5.26669        2.11807       -2.43230
   C        4.24836        2.16824       -1.47644
   H        4.40051        2.79728       -0.59928
   C        3.06993        1.41339       -1.62632
   C        2.95412        0.59926       -2.76812
   H        2.07676       -0.02204       -2.93218
   C        3.97255        0.55453       -3.72558
   H        3.86377       -0.08069       -4.60149
   C        5.12654        1.31252       -3.55884
   H        5.91927        1.27201       -4.30051
   H        2.91635        0.80240        4.50627
   C        2.94203        0.36620        3.51100
   C        2.37799        1.05545        2.43270
   H        1.92782        2.02780        2.62592
   C        2.41478        0.52015        1.13221
   C        3.02819       -0.73385        0.95519
   H        3.10464       -1.18425       -0.03397
   C        3.59412       -1.41930        2.03423
   H        4.08201       -2.37665        1.87099
   C        3.55335       -0.86806        3.31134
   H        4.00580       -1.39515        4.14673
*