! TPSSh D3BJ TightSCF OPT FREQ cc-pVDZ
!  Largeprint Printbasis PrintMOs

%pal
nprocs 24
end

%scf
maxiter 500
end

%geom
maxiter 500
end

* xyz 0 1
  Si       -4.81696        1.65908       -0.48761
  Si       -3.14571        2.61730        0.32903
  Si       -1.50404        1.33812        0.17344
  Si        0.31604        2.32928        0.50804
  Si        1.77280        0.97101       -0.00000
  Si        3.52546        0.97101        0.00000
  Si        5.21768        0.97101        0.00000
   H       -6.67880        3.77290        0.61678
   C       -6.72839        3.80858       -0.47049
   C       -7.58826        4.73546       -1.06445
   H       -8.17808        5.40186       -0.44086
   C       -7.69838        4.79919       -2.45083
   H       -8.37189        5.51688       -2.91053
   C       -6.94956        3.93558       -3.24583
   H       -7.03994        3.97928       -4.32788
   C       -6.08726        3.00789       -2.65580
   H       -5.52313        2.34255       -3.30719
   C       -5.96115        2.93090       -1.25706
   H       -5.21342        1.59662        2.55456
   C       -5.91568        0.91263        2.08385
   C       -6.81049        0.22622        2.91272
   H       -6.78078        0.38254        3.98791
   C       -7.74743       -0.64708        2.36713
   H       -8.44752       -1.17066        3.01214
   C       -7.79023       -0.83911        0.99063
   H       -8.52644       -1.51097        0.55720
   C       -6.89622       -0.15689        0.16071
   H       -6.97432       -0.31751       -0.91423
   C       -5.94101        0.73524        0.69017
   H        9.13047        3.04961       -2.27200
   C        8.26190        2.40978       -2.40279
   C        7.42411        2.14414       -1.31594
   H        7.67676        2.58941       -0.35376
   C        6.29653        1.31190       -1.45017
   C        6.04553        0.75281       -2.71706
   H        5.19447        0.09365       -2.88101
   C        6.88231        1.02295       -3.80439
   H        6.66906        0.58160       -4.77442
   C        7.98951        1.85096       -3.64735
   H        8.64188        2.05639       -4.49127
   H        7.24515        0.15960        4.48514
   C        7.15154       -0.20993        3.46737
   C        6.37205        0.48898        2.54129
   H        5.87640        1.39958        2.87527
   C        6.23391        0.03393        1.21580
   C        6.91104       -1.14449        0.85426
   H        6.85220       -1.53153       -0.16259
   C        7.69275       -1.84034        1.78113
   H        8.21394       -2.74431        1.47763
   C        7.81179       -1.37400        3.08712
   H        8.42212       -1.91420        3.80526
*