! TPSSh D3BJ TightSCF OPT FREQ cc-pVTZ
!  Largeprint Printbasis PrintMOs

%pal
nprocs 24
end

%scf
maxiter 500
end

%geom
maxiter 500
end

* xyz 0 1
  Si       -2.84332        0.99191        0.81147
  Si       -1.33731        0.19525       -0.32210
  Si        0.73193        0.50927        0.39089
  Si        2.26011       -0.34570       -0.66725
   H       -1.62540       -0.44603       -1.63475
   H        1.00934        1.24142        1.65723
   H       -5.27653        0.48206        2.42428
   C       -5.56585        0.49103        1.37409
   C       -6.91823        0.31694        1.06323
   H       -7.64308        0.17537        1.86163
   C       -7.33913        0.33519       -0.26137
   H       -8.39099        0.20828       -0.50248
   C       -6.40666        0.52157       -1.27881
   H       -6.73228        0.53691       -2.31506
   C       -5.05357        0.69858       -0.96962
   H       -4.36063        0.85043       -1.79658
   C       -4.60605        0.69113        0.36266
   H        6.19482        0.58518        2.29170
   C        5.82978        0.54612        1.26855
   C        4.49557        0.20866        1.01688
   H        3.85620       -0.00876        1.87128
   C        3.99918        0.14639       -0.29741
   C        4.88913        0.43877       -1.34811
   H        4.55991        0.39882       -2.38623
   C        6.22297        0.77344       -1.09451
   H        6.89471        0.98686       -1.92197
   C        6.69363        0.82517        0.21363
   H        7.73158        1.07916        0.41030
   H       -2.55959        1.35834        2.22395
   H        1.98803       -0.90514       -2.01704
*

