30
Coordinates from ORCA-job alt4Si2Phy E -1623.940501435241
  Si     -2.843320      0.991910      0.811470
  Si     -1.337310      0.195250     -0.322100
  Si      0.731930      0.509270      0.390890
  Si      2.260110     -0.345700     -0.667250
  H      -1.625400     -0.446030     -1.634750
  H       1.009340      1.241420      1.657230
  H      -5.276530      0.482060      2.424280
  C      -5.565850      0.491030      1.374090
  C      -6.918230      0.316940      1.063230
  H      -7.643080      0.175370      1.861630
  C      -7.339130      0.335190     -0.261370
  H      -8.390990      0.208280     -0.502480
  C      -6.406660      0.521570     -1.278810
  H      -6.732280      0.536910     -2.315060
  C      -5.053570      0.698580     -0.969620
  H      -4.360630      0.850430     -1.796580
  C      -4.606050      0.691130      0.362660
  H       6.194820      0.585180      2.291700
  C       5.829780      0.546120      1.268550
  C       4.495570      0.208660      1.016880
  H       3.856200     -0.008760      1.871280
  C       3.999180      0.146390     -0.297410
  C       4.889130      0.438770     -1.348110
  H       4.559910      0.398820     -2.386230
  C       6.222970      0.773440     -1.094510
  H       6.894710      0.986860     -1.921970
  C       6.693630      0.825170      0.213630
  H       7.731580      1.079160      0.410300
  H      -2.559590      1.358340      2.223950
  H       1.988030     -0.905140     -2.017040
30
Coordinates from ORCA-job alt4Si2Phy E -1623.948995769846
  Si     -2.888616      0.930505      0.841795
  Si     -1.351572      0.165829     -0.317305
  Si      0.736391      0.581538      0.327260
  Si      2.300200     -0.227135     -0.763461
  H      -1.628239     -0.418182     -1.653827
  H       0.997320      1.251464      1.625907
  H      -5.351082      0.542197      2.447892
  C      -5.636061      0.524115      1.401300
  C      -6.980440      0.351505      1.083514
  H      -7.711205      0.240451      1.876192
  C      -7.385406      0.327292     -0.246801
  H      -8.432494      0.200818     -0.495540
  C      -6.439524      0.471683     -1.258308
  H      -6.749478      0.455477     -2.296421
  C      -5.096095      0.647454     -0.940178
  H      -4.387295      0.765393     -1.753102
  C      -4.665496      0.673733      0.394972
  H       6.166291      0.552539      2.309157
  C       5.837727      0.524789      1.276871
  C       4.511460      0.222597      0.981311
  H       3.833932      0.020703      1.804105
  C       4.057895      0.180066     -0.346168
  C       4.987617      0.442121     -1.366966
  H       4.683988      0.415865     -2.408201
  C       6.314814      0.740975     -1.071801
  H       7.014382      0.938998     -1.875461
  C       6.742990      0.781391      0.251373
  H       7.777308      1.007763      0.482043
  H      -2.606098      1.350530      2.236370
  H       2.045057     -0.775853     -2.118044
30
Coordinates from ORCA-job alt4Si2Phy E -1623.957068407997
  Si     -2.999159      0.914366      0.856941
  Si     -1.372295      0.210560     -0.331149
  Si      0.751941      0.609533      0.317533
  Si      2.401091     -0.149385     -0.803432
  H      -1.603026     -0.304254     -1.695535
  H       0.967764      1.190241      1.657674
  H      -5.479922      0.583057      2.465554
  C      -5.770406      0.545100      1.424511
  C      -7.102601      0.359957      1.098283
  H      -7.837884      0.257597      1.883951
  C      -7.491057      0.304251     -0.238140
  H      -8.531622      0.163309     -0.495872
  C      -6.534346      0.438102     -1.241512
  H      -6.828372      0.402373     -2.281752
  C      -5.205465      0.627775     -0.913635
  H      -4.473060      0.742114     -1.701103
  C      -4.794859      0.676747      0.425141
  H       6.223917      0.572174      2.308398
  C       5.921761      0.532427      1.271024
  C       4.605519      0.253341      0.952563
  H       3.891551      0.074934      1.745189
  C       4.184373      0.196739     -0.381911
  C       5.137511      0.412250     -1.388598
  H       4.839756      0.370351     -2.427174
  C       6.456617      0.686937     -1.072189
  H       7.174292      0.854077     -1.863582
  C       6.855141      0.749600      0.260493
  H       7.885931      0.960721      0.509778
  H      -2.755019      1.320492      2.256681
  H       2.180198     -0.668869     -2.169649
30
Coordinates from ORCA-job alt4Si2Phy E -1623.958770775940
  Si     -3.026638      0.865645      0.878125
  Si     -1.374596      0.191859     -0.326060
  Si      0.751672      0.688311      0.271892
  Si      2.426466     -0.032841     -0.871483
  H      -1.599519     -0.241810     -1.720153
  H       0.959150      1.172864      1.651951
  H      -5.519988      0.633750      2.485553
  C      -5.807898      0.566184      1.442150
  C      -7.144245      0.392815      1.110257
  H      -7.889020      0.327954      1.894434
  C      -7.525556      0.300403     -0.226209
  H      -8.568573      0.166964     -0.485838
  C      -6.561387      0.386480     -1.228241
  H      -6.852452      0.321869     -2.270004
  C      -5.227035      0.564209     -0.897670
  H      -4.483255      0.642761     -1.683055
  C      -4.824269      0.650488      0.444534
  H       6.210004      0.560073      2.324421
  C       5.927667      0.522619      1.278978
  C       4.604558      0.294654      0.932070
  H       3.861470      0.150811      1.708761
  C       4.212746      0.241587     -0.414444
  C       5.196404      0.410201     -1.401598
  H       4.917881      0.369641     -2.448905
  C       6.521203      0.633681     -1.053828
  H       7.265873      0.764210     -1.829949
  C       6.891329      0.692652      0.287521
  H       7.925563      0.865432      0.558958
  H      -2.791050      1.260868      2.283002
  H       2.221763     -0.477713     -2.266690
30
Coordinates from ORCA-job alt4Si2Phy E -1623.959692347716
  Si     -3.040985      0.839017      0.890386
  Si     -1.372187      0.198860     -0.329291
  Si      0.750626      0.715850      0.274369
  Si      2.437667      0.023681     -0.890519
  H      -1.589751     -0.108628     -1.760051
  H       0.950773      1.047288      1.702527
  H      -5.539471      0.662482      2.490408
  C      -5.823789      0.578432      1.447067
  C      -7.162423      0.415319      1.111079
  H      -7.912451      0.374437      1.892274
  C      -7.538820      0.301601     -0.224307
  H      -8.582570      0.174645     -0.485235
  C      -6.570709      0.357103     -1.224746
  H      -6.860447      0.275536     -2.265806
  C      -5.233618      0.525275     -0.892051
  H      -4.485944      0.580779     -1.675915
  C      -4.835326      0.632564      0.451489
  H       6.207425      0.614679      2.323380
  C       5.931184      0.553172      1.277272
  C       4.603282      0.352099      0.925025
  H       3.849839      0.251294      1.698737
  C       4.222213      0.269469     -0.424715
  C       5.218549      0.381145     -1.407787
  H       4.948094      0.316592     -2.456169
  C       6.547735      0.576945     -1.052637
  H       7.303888      0.662826     -1.824197
  C       6.906911      0.666129      0.289448
  H       7.943448      0.818589      0.565097
  H      -2.816374      1.160496      2.317120
  H       2.241499     -0.331054     -2.313770
30
Coordinates from ORCA-job alt4Si2Phy E -1623.960410946782
  Si     -3.044757      0.818582      0.899235
  Si     -1.366701      0.177794     -0.320841
  Si      0.746377      0.752182      0.266857
  Si      2.440338      0.069391     -0.908361
  H      -1.586010     -0.042735     -1.770293
  H       0.949001      0.990153      1.716346
  H      -5.544181      0.694239      2.490768
  C      -5.825306      0.593557      1.448370
  C      -7.165785      0.441799      1.111058
  H      -7.919057      0.426375      1.889853
  C      -7.539406      0.306700     -0.222202
  H      -8.584005      0.187417     -0.483220
  C      -6.568770      0.329655     -1.221650
  H      -6.858338      0.230087     -2.260955
  C      -5.230066      0.486920     -0.888615
  H      -4.481640      0.516212     -1.672807
  C      -4.833734      0.615492      0.454257
  H       6.196612      0.640178      2.323384
  C       5.924174      0.565963      1.277330
  C       4.593824      0.390593      0.919940
  H       3.835013      0.321754      1.691572
  C       4.219662      0.294102     -0.431658
  C       5.224453      0.365592     -1.410090
  H       4.960469      0.289802     -2.459034
  C       6.556385      0.535330     -1.048733
  H       7.320115      0.589696     -1.815484
  C       6.908008      0.638873      0.293556
  H       7.946032      0.772073      0.573394
  H      -2.832675      1.059997      2.345299
  H       2.258238     -0.171152     -2.358796
30
Coordinates from ORCA-job alt4Si2Phy E -1623.960931130364
  Si     -3.041102      0.816422      0.901295
  Si     -1.359754      0.161389     -0.314789
  Si      0.741433      0.766589      0.282374
  Si      2.433422      0.073468     -0.899173
  H      -1.577396      0.059050     -1.780215
  H       0.943799      0.869609      1.750444
  H      -5.538163      0.714513      2.485181
  C      -5.817407      0.604696      1.443290
  C      -7.158655      0.459912      1.106604
  H      -7.913006      0.459673      1.884392
  C      -7.531494      0.312368     -0.225194
  H      -8.576684      0.197955     -0.486110
  C      -6.559599      0.315373     -1.224095
  H      -6.849392      0.204393     -2.262083
  C      -5.220869      0.466303     -0.891352
  H      -4.473501      0.478719     -1.676998
  C      -4.824452      0.607020      0.450092
  H       6.196716      0.687358      2.315746
  C       5.920182      0.592714      1.272500
  C       4.588010      0.424058      0.922081
  H       3.832357      0.381228      1.698691
  C       4.208975      0.304175     -0.426367
  C       5.212175      0.344454     -1.408251
  H       4.945962      0.250884     -2.455127
  C       6.546799      0.507038     -1.054068
  H       7.309384      0.537170     -1.823171
  C       6.902346      0.634384      0.284755
  H       7.942399      0.762496      0.559488
  H      -2.842245      0.976310      2.361946
  H       2.258028     -0.083101     -2.363405
30
Coordinates from ORCA-job alt4Si2Phy E -1623.961156456852
  Si     -3.035309      0.807840      0.912188
  Si     -1.353650      0.106050     -0.288939
  Si      0.733811      0.781008      0.288196
  Si      2.425712      0.070222     -0.896397
  H      -1.578332      0.077447     -1.758666
  H       0.947796      0.815049      1.759990
  H      -5.536358      0.729114      2.481152
  C      -5.812404      0.615362      1.438929
  C      -7.153610      0.482926      1.098975
  H      -7.910639      0.497179      1.873840
  C      -7.522854      0.328855     -0.233263
  H      -8.568044      0.223848     -0.497768
  C      -6.546542      0.312318     -1.228149
  H      -6.833350      0.194709     -2.266150
  C      -5.208457      0.451403     -0.891202
  H      -4.458859      0.447174     -1.674730
  C      -4.815060      0.598005      0.450087
  H       6.193508      0.720673      2.308208
  C       5.914677      0.612279      1.267015
  C       4.581913      0.446923      0.920880
  H       3.828123      0.421308      1.699993
  C       4.199048      0.312029     -0.424832
  C       5.201490      0.332469     -1.408226
  H       4.933079      0.228160     -2.453424
  C       6.537483      0.491450     -1.059230
  H       7.298718      0.506882     -1.829939
  C       6.896019      0.634152      0.277280
  H       7.937110      0.759646      0.548967
  H      -2.859019      0.878679      2.383870
  H       2.262270      0.003461     -2.370176
30
Coordinates from ORCA-job alt4Si2Phy E -1623.961189654987
  Si     -3.035451      0.832736      0.900436
  Si     -1.354340      0.117357     -0.295518
  Si      0.734161      0.788944      0.288854
  Si      2.424883      0.075936     -0.898161
  H      -1.576974      0.100369     -1.765798
  H       0.948806      0.807157      1.760715
  H      -5.532078      0.741506      2.478006
  C      -5.811429      0.620831      1.437334
  C      -7.152643      0.476848      1.102888
  H      -7.906946      0.489453      1.880492
  C      -7.525429      0.313378     -0.227558
  H      -8.570683      0.199704     -0.488211
  C      -6.552072      0.298813     -1.225291
  H      -6.841006      0.173783     -2.261902
  C      -5.213908      0.449578     -0.893504
  H      -4.466236      0.446820     -1.678994
  C      -4.816961      0.605558      0.445537
  H       6.194882      0.701785      2.311807
  C       5.916580      0.599867      1.269761
  C       4.583589      0.438914      0.922169
  H       3.828954      0.410520      1.700483
  C       4.200504      0.312575     -0.424112
  C       5.203573      0.336752     -1.406858
  H       4.934652      0.239383     -2.452703
  C       6.539654      0.491211     -1.056849
  H       7.300837      0.509730     -1.827603
  C       6.898481      0.625432      0.280719
  H       7.939721      0.747165      0.553548
  H      -2.857438      0.918040      2.371246
  H       2.262588      0.016475     -2.372454
30
Coordinates from ORCA-job alt4Si2Phy E -1623.961210840876
  Si     -3.037609      0.837717      0.913583
  Si     -1.354509      0.104746     -0.273331
  Si      0.735268      0.791472      0.308161
  Si      2.420107      0.060018     -0.879878
  H      -1.581994      0.064660     -1.742347
  H       0.958685      0.795532      1.778317
  H      -5.545170      0.708990      2.478528
  C      -5.821198      0.605482      1.434918
  C      -7.160082      0.461717      1.092765
  H      -7.917286      0.458068      1.867745
  C      -7.526955      0.319367     -0.242454
  H      -8.570549      0.206662     -0.510036
  C      -6.548677      0.325233     -1.235149
  H      -6.831405      0.216545     -2.275442
  C      -5.212414      0.475853     -0.894816
  H      -4.459550      0.488992     -1.675452
  C      -4.821710      0.610457      0.448059
  H       6.213127      0.730811      2.300875
  C       5.929760      0.618074      1.261197
  C       4.595082      0.448300      0.923360
  H       3.844047      0.424430      1.705524
  C       4.203390      0.307707     -0.418516
  C       5.200682      0.326650     -1.407394
  H       4.924039      0.218872     -2.450416
  C       6.538021      0.489891     -1.067907
  H       7.293485      0.504333     -1.844476
  C       6.905700      0.638057      0.266379
  H       7.948121      0.766027      0.531693
  H      -2.870552      0.915708      2.386326
  H       2.248417     -0.033751     -2.351337
30
Coordinates from ORCA-job alt4Si2Phy E -1623.961233033557
  Si     -3.033853      0.839940      0.905612
  Si     -1.357233      0.092900     -0.282218
  Si      0.733775      0.781703      0.296716
  Si      2.422070      0.056072     -0.890221
  H      -1.588742      0.067989     -1.751115
  H       0.960565      0.821190      1.765979
  H      -5.537456      0.717517      2.478652
  C      -5.816438      0.609952      1.436285
  C      -7.156307      0.464446      1.098473
  H      -7.911265      0.463283      1.875629
  C      -7.526965      0.317095     -0.235080
  H      -8.571294      0.202977     -0.499160
  C      -6.551756      0.319937     -1.230686
  H      -6.837478      0.207550     -2.269743
  C      -5.214406      0.472196     -0.894841
  H      -4.463948      0.483014     -1.677780
  C      -4.819943      0.612018      0.446388
  H       6.202644      0.717120      2.307337
  C       5.923220      0.609724      1.266058
  C       4.589993      0.438906      0.922681
  H       3.836444      0.408687      1.702155
  C       4.203505      0.304858     -0.421350
  C       5.204087      0.331859     -1.406763
  H       4.931478      0.228968     -2.451285
  C       6.539886      0.496213     -1.061585
  H       7.298040      0.516709     -1.835366
  C       6.902459      0.637699      0.274771
  H       7.943636      0.766618      0.544435
  H      -2.862554      0.927237      2.377519
  H       2.256108     -0.027756     -2.363015
30
Coordinates from ORCA-job alt4Si2Phy E -1623.961240937688
  Si     -3.032841      0.860235      0.899014
  Si     -1.354592      0.125448     -0.293745
  Si      0.734783      0.821140      0.281507
  Si      2.418967      0.077616     -0.899313
  H      -1.589925      0.091019     -1.762055
  H       0.961795      0.851157      1.751171
  H      -5.530227      0.722050      2.479682
  C      -5.810545      0.608887      1.438347
  C      -7.150122      0.450760      1.104364
  H      -7.903114      0.445069      1.883373
  C      -7.522880      0.296609     -0.227564
  H      -8.566908      0.172380     -0.488293
  C      -6.550767      0.305634     -1.226175
  H      -6.838692      0.188151     -2.264011
  C      -5.213845      0.470418     -0.894483
  H      -4.466305      0.486028     -1.680047
  C      -4.817119      0.617163      0.445408
  H       6.192074      0.696936      2.313282
  C       5.915229      0.594752      1.270828
  C       4.581803      0.436312      0.922338
  H       3.825788      0.410239      1.699490
  C       4.199381      0.309260     -0.423660
  C       5.203439      0.330388     -1.405624
  H       4.934302      0.232325     -2.451427
  C       6.539458      0.482409     -1.054966
  H       7.300799      0.498467     -1.825681
  C       6.898028      0.617245      0.282928
  H       7.939294      0.736772      0.556581
  H      -2.857487      0.952381      2.370259
  H       2.258499     -0.000630     -2.373049
30
Coordinates from ORCA-job alt4Si2Phy E -1623.961245329000
  Si     -3.032162      0.844077      0.909640
  Si     -1.354949      0.102231     -0.281107
  Si      0.734415      0.798990      0.294944
  Si      2.418050      0.060201     -0.890130
  H      -1.590557      0.072398     -1.749534
  H       0.964399      0.827817      1.764322
  H      -5.536724      0.717195      2.480227
  C      -5.813090      0.608786      1.437365
  C      -7.152162      0.458861      1.097159
  H      -7.908540      0.454633      1.872889
  C      -7.520061      0.311000     -0.236682
  H      -8.563672      0.193019     -0.502011
  C      -6.543979      0.318286     -1.231434
  H      -6.828415      0.205858     -2.270777
  C      -5.207552      0.474783     -0.893696
  H      -4.456957      0.489116     -1.676340
  C      -4.815739      0.614776      0.448406
  H       6.197202      0.715292      2.306785
  C       5.917348      0.607592      1.265697
  C       4.583827      0.438790      0.922424
  H       3.830905      0.410076      1.702446
  C       4.197953      0.304626     -0.421968
  C       5.198287      0.328906     -1.407601
  H       4.926495      0.225145     -2.452131
  C       6.534496      0.491237     -1.061909
  H       7.293258      0.509690     -1.835104
  C       6.896442      0.633335      0.274205
  H       7.937814      0.761016      0.543798
  H      -2.861574      0.931831      2.381769
  H       2.253513     -0.022943     -2.363172
30
Coordinates from ORCA-job alt4Si2Phy E -1623.961246781576
  Si     -3.032393      0.847317      0.911437
  Si     -1.355592      0.105641     -0.281390
  Si      0.735031      0.801127      0.295869
  Si      2.417447      0.059737     -0.890209
  H      -1.593566      0.074873     -1.749366
  H       0.967456      0.832069      1.764782
  H      -5.538316      0.715474      2.481153
  C      -5.813751      0.607713      1.437988
  C      -7.152258      0.455523      1.096603
  H      -7.909234      0.448862      1.871731
  C      -7.518844      0.308474     -0.237697
  H      -8.562030      0.188684     -0.503886
  C      -6.542109      0.318979     -1.231784
  H      -6.825573      0.207403     -2.271483
  C      -5.206271      0.477780     -0.892854
  H      -4.455090      0.494811     -1.674874
  C      -4.815794      0.616702      0.449728
  H       6.196193      0.716146      2.306354
  C       5.916579      0.607752      1.265270
  C       4.583170      0.438413      0.921825
  H       3.830059      0.410019      1.701660
  C       4.197659      0.303426     -0.422574
  C       5.198118      0.327042     -1.408037
  H       4.926518      0.222593     -2.452539
  C       6.534224      0.489888     -1.062168
  H       7.293176      0.507970     -1.835183
  C       6.895826      0.633002      0.273931
  H       7.937129      0.761077      0.543621
  H      -2.862450      0.934603      2.383657
  H       2.252955     -0.026481     -2.363084
