! TPSSh D3BJ OPT FREQ cc-pVQZ
!  Largeprint Printbasis PrintMOs

%pal
nprocs 24
end

%scf
maxiter 500
end

%geom
maxiter 500
end

* xyz 0 1
  Si       -4.36892        1.30863        0.18409
  Si       -2.66248        0.15341        0.51263
   H       -5.58388        0.45583        0.20009
   H       -4.24606        2.10963       -1.06103
  Si       -0.95524        1.22938       -0.03153
  Si        0.67563       -0.08055       -0.00873
  Si        2.45618        0.99452       -0.15925
   H        3.60777        0.14981        0.24746
   H        2.38312        2.26877        0.60193
*