25
Coordinates from ORCA-job orca1 E -495.874546874592
  C      -1.821480      2.753030     -0.649840
  C      -3.514770      1.549370     -0.291680
  C       0.124070      2.048940     -0.241970
  C      -3.255540     -0.438730      0.348620
  C       0.351600      0.023840      0.284580
  C      -1.319830     -1.201770      0.637770
  C      -1.602200      1.017360      0.774010
  C      -1.313970     -1.003070      2.280590
  C      -2.687770     -0.113960      2.363110
  C      -0.211170      0.193070      2.317020
  C      -3.452480      1.772870      1.809710
  C      -0.057150      2.244200      1.855460
  C      -1.907720      3.155470      1.423910
  H      -0.196780      2.430770      2.939710
  H       0.872300     -0.015410      2.433990
  H      -1.168670     -1.886210      2.935480
  H      -3.587790     -0.758780      2.439430
  H      -4.015420      2.709620      1.619230
  H      -1.223370      4.003740      1.215900
  H      -4.532090      1.118790     -0.192980
  H      -3.385800     -1.502520      0.636340
  H      -2.705700      3.391280     -0.854430
  H       0.262040      3.141300     -0.377860
  H       0.741210     -0.989790      0.513160
  H      -2.026030     -2.038880      0.832330
